
Circuit: * gnetlist -g spice-sdb -o i-decoder-001.sch2.cir i-decoder-001.sch2

Doing analysis at TEMP = 27.000000 and TNOM = 27.000000


Initial Transient Solution
--------------------------

Node                                   Voltage
----                                   -------
q1                                           5
q7                                           5
lsb                                          5
4                                            5
vcc                                          5
x2.1.13                            2.73809e-08
n1                                 1.70209e-05
x2.1.1                                 0.29158
x2.1.12                            5.47618e-08
q6                                           5
x2.1.11                            8.21426e-08
q5                                           5
x2.1.5                               0.0202351
n4                                 1.70209e-05
n3                                 1.70209e-05
n2                                 1.70209e-05
x2.1.3                               0.0514332
q4                                           5
x5.1.11                            8.50804e-05
x5.1.10                            0.000170162
x5.1.5                             0.000255246
1                                  0.000425418
q3                                           5
q2                                           5
x5.1.3                             0.000340331
2                                      4.99999
x6.1.3                             4.00079e-06
x8.1.10                                3.91107
6                                  0.000833602
x8.1.5                                 3.94009
5                                            5
3                                            5
x8.1.3                                  4.0013
ssb                                    4.99999
x7.1.3                                4.02e-06
x4.1.13                            0.000119077
x4.1.1                             0.000714507
x4.1.12                            0.000238156
x4.1.11                            0.000357239
x4.1.5                             0.000476325
x4.1.3                             0.000595414
n6                                 1.70209e-05
x1.1.13                            1.71475e-08
x1.1.1                                0.315511
x1.1.12                              0.0118733
x1.1.11                              0.0267285
n5                                 1.70209e-05
x1.1.5                               0.0466869
x1.1.3                               0.0775823
x3.1.13                            6.50853e-08
x3.1.1                                0.242609
x3.1.12                            1.30171e-07
x3.1.11                            1.95256e-07
x3.1.5                             2.60341e-07
x3.1.3                             3.25427e-07
v5#branch                                    0
v2#branch                                    0
v3#branch                                    0
v8#branch                         -1.33152e-07
v6#branch                                    0
v4#branch                                    0
v7#branch                                    0
v1#branch                                    0


No. of Data Rows : 32104

