
**** 10/08/09 20:26:00 ******* PSpice 10.5.0 (Jan 2005) ******* ID# 0 ********

 ** Profile: "S-NAND-3-bias S-NAND-3"  [ D:\Documents\TESIS\TRUNK\Design\I-FFD-01\I-FFD-01-PSpiceFiles\S-NAND-3\bias S-NAND-3.sim ] 


 ****     CIRCUIT DESCRIPTION


******************************************************************************




** Creating circuit file "bias S-NAND-3.cir" 
** WARNING: THIS AUTOMATICALLY GENERATED FILE MAY BE OVERWRITTEN BY SUBSEQUENT SIMULATIONS

*Libraries: 
* Profile Libraries :
* Local Libraries :
* From [PSPICE NETLIST] section of C:\OrCAD\OrCAD_10.5\tools\PSpice\PSpice.ini file:
.lib "nom.lib" 

*Analysis directives: 
.PROBE V(alias(*)) I(alias(*)) W(alias(*)) D(alias(*)) NOISE(alias(*)) 
.INC "..\S-NAND-3.net" 



**** INCLUDING S-NAND-3.net ****
* source I-FFD-01
.EXTERNAL INPUT IN1
.EXTERNAL INPUT IN2
.EXTERNAL INPUT IN3
.EXTERNAL INPUT VDD
.EXTERNAL INPUT OUT
.EXTERNAL INPUT GND
M_M1         OUT IN1 N45225 N45225 MbreakN           
M_M2         N45225 IN1 N45964 N45964 MbreakN           
M_M3         OUT IN1 IN1 IN1 MbreakP           
M_M5         N45964 IN1 GND GND MbreakN           
M_M4         OUT IN1 IN1 IN1 MbreakP           
V_V1         IN1 GND 5
M_M6         OUT IN1 IN1 IN1 MbreakP           

**** RESUMING "bias S-NAND-3.cir" ****
.END

ERROR -- Node OUT is floating
ERROR -- Node IN1 is floating
ERROR -- Node N45225 is floating
ERROR -- Node N45964 is floating
ERROR -- Node GND is floating