
**** 11/11/09 15:48:11 ******* PSpice 10.5.0 (Jan 2005) ******* ID# 0 ********

 ** Profile: "SCHEMATIC1-test"  [ D:\Documents\TESIS\TRUNK\Design\I-TESTCURRENT-001\i-testcurrent-001-pspicefiles\schematic1\test.sim


 ****     CIRCUIT DESCRIPTION


******************************************************************************




** Creating circuit file "test.cir" 
** WARNING: THIS AUTOMATICALLY GENERATED FILE MAY BE OVERWRITTEN BY SUBSEQUENT SIMULATIONS

*Libraries: 
* Profile Libraries :
* Local Libraries :
.LIB "../../../i-testcurrent-001-pspicefiles/i-testcurrent-001.lib" 
* From [PSPICE NETLIST] section of C:\OrCAD\OrCAD_10.5\tools\PSpice\PSpice.ini file:
.lib "nom.lib" 

*Analysis directives: 
.TRAN  0 .20n 0.1p 0.001u 
.PROBE V(alias(*)) I(alias(*)) W(alias(*)) D(alias(*)) NOISE(alias(*)) 
.INC "..\SCHEMATIC1.net" 



**** INCLUDING SCHEMATIC1.net ****
* source I-TESTCURRENT-001
I_I1         N20034 0 DC 0Adc AC 0Aac
+EXP 0m 500u 1.5p .5p 2.5p 1.5p
I_I2         N20034 0 DC 0Adc AC 0Aac
+PULSE 0 200u 1.5p .8p 130p 9p 0
R_R2         0 ITEST  1k TC=0,0 
R_R1         N20034 ITEST  1k TC=0,0 

**** RESUMING test.cir ****
.END

**** 11/11/09 15:48:11 ******* PSpice 10.5.0 (Jan 2005) ******* ID# 0 ********

 ** Profile: "SCHEMATIC1-test"  [ D:\Documents\TESIS\TRUNK\Design\I-TESTCURRENT-001\i-testcurrent-001-pspicefiles\schematic1\test.sim


 ****     INITIAL TRANSIENT SOLUTION       TEMPERATURE =   27.000 DEG C


******************************************************************************



 NODE   VOLTAGE     NODE   VOLTAGE     NODE   VOLTAGE     NODE   VOLTAGE


(ITEST)    0.0000  (N20034)    0.0000 




    VOLTAGE SOURCE CURRENTS
    NAME         CURRENT


    TOTAL POWER DISSIPATION   0.00E+00  WATTS



          JOB CONCLUDED

**** 11/11/09 15:48:11 ******* PSpice 10.5.0 (Jan 2005) ******* ID# 0 ********

 ** Profile: "SCHEMATIC1-test"  [ D:\Documents\TESIS\TRUNK\Design\I-TESTCURRENT-001\i-testcurrent-001-pspicefiles\schematic1\test.sim


 ****     JOB STATISTICS SUMMARY


******************************************************************************



  Total job time (using Solver 1)   =         .02
