
**** 08/10/09 19:46:26 ******** PSpice Lite (Oct 2008) ******** ID# 10813 ****

 ** Profile: "SCHEMATIC1-bias"  [ D:\Documents\TESIS\TRUNK\Design\E-OPAMPA-01\e-opampa-01-pspicefiles\schematic1\bias.sim ] 


 ****     CIRCUIT DESCRIPTION


******************************************************************************




** Creating circuit file "bias.cir" 
** WARNING: THIS AUTOMATICALLY GENERATED FILE MAY BE OVERWRITTEN BY SUBSEQUENT SIMULATIONS

*Libraries: 
* Profile Libraries :
* Local Libraries :
.LIB "../../../e-opampa-01-pspicefiles/e-opampa-01.lib" 
* From [PSPICE NETLIST] section of C:\OrCAD\OrCAD_16.2\tools\PSpice\PSpice.ini file:
.lib "nomd.lib" 

*Analysis directives: 
.PROBE V(alias(*)) I(alias(*)) W(alias(*)) D(alias(*)) NOISE(alias(*)) 
.INC "..\SCHEMATIC1.net" 



**** INCLUDING SCHEMATIC1.net ****
* source E-OPAMPA-01
M_M7         N3 N2 0 0 NMOS  
+ L=1.6u  
+ W=160u         
M_M8         N15697 N7 0 0 NMOS  
+ L=1.6u  
+ W=160u         
M_M9         N16004 N7 0 0 NMOS  
+ L=1.6u  
+ W=160u         
V_V1         VIN+ 0  
+SIN 1.3 1m 1K 0 0 0
V_V3         VCC 0 5
M_M10         N2 N2 0 0 NMOS  
+ L=1.6u  
+ W=60u         
M_M1         N5 N5 VCC VCC PMOS  
+ L=1.6u  
+ W=400u         
M_M2         N6 N6 VCC VCC PMOS  
+ L=1.6u  
+ W=400u         
M_M11         N2 N2 N1 VCC PMOS  
+ L=1.6u  
+ W=180u         
M_M3         N15697 N5 VCC VCC PMOS  
+ L=1.6u  
+ W=400u         
M_M4         N16004 N6 VCC VCC PMOS  
+ L=1.6u  
+ W=400u         
M_M12         N1 N1 VCC VCC PMOS  
+ L=1.6u  
+ W=180u         
V_V2         0 VIN-  
+SIN 1.3 1m 1K 0 0 0
M_M5         N5 VIN+ N3 0 NMOS  
+ L=1.6u  
+ W=160u         
M_M6         N6 VIN- N3 0 NMOS  
+ L=1.6u  
+ W=160u         

**** RESUMING bias.cir ****
.END

ERROR -- Node N7 is floating