
Circuit: * gnetlist -g spice-sdb -o i-comparador-01.sch.cir i-comparador-01.sch

Doing analysis at TEMP = 27.000000 and TNOM = 27.000000


Initial Transient Solution
--------------------------

Node                                   Voltage
----                                   -------
out_f                                 0.143914
8                                            5
7                                          1.5
biasglob                                   2.5
vcc                                          5
in_2                                       1.5
5                                    0.0852947
bias2                                 0.309495
out_1b                                 1.78086
out_2b                                 4.35891
out_2a                                0.412285
out_1a                                 4.87843
bias1                                0.0852947
in_1                                         0
3                                     0.412285
4                                      4.35891
2                                      4.87843
1                                      1.78086
6                                     0.309495
v5#branch                                    0
v1a#branch                         5.72637e-12
v1b#branch                         4.35293e-06
vout#branch                        4.85609e-05
vbias2#branch                      1.41087e-05
vbias1#branch                      4.35293e-06
v2a#branch                         9.97753e-06
v2b#branch                          4.1312e-06
v4#branch                                    0
v1#branch                         -6.88237e-05
v2#branch                                    0
v3#branch                             -1.5e-05


No. of Data Rows : 220008

