
**** 12/15/09 23:29:34 ******* PSpice 10.5.0 (Jan 2005) ******* ID# 0 ********

 ** Profile: "TEST-bias"  [ D:\Documents\TESIS\TRUNK\Design\I-FLASH-01\OrCAD\I-FLASH-6BITS\i-flash-6bits-PSpiceFiles\TEST\bias.sim ] 


 ****     CIRCUIT DESCRIPTION


******************************************************************************




** Creating circuit file "bias.cir" 
** WARNING: THIS AUTOMATICALLY GENERATED FILE MAY BE OVERWRITTEN BY SUBSEQUENT SIMULATIONS

*Libraries: 
* Profile Libraries :
* Local Libraries :
* From [PSPICE NETLIST] section of C:\OrCAD\OrCAD_10.5\tools\PSpice\PSpice.ini file:
.lib "nom.lib" 

*Analysis directives: 
.PROBE V(alias(*)) I(alias(*)) W(alias(*)) D(alias(*)) NOISE(alias(*)) 
.INC "..\TEST.net" 



**** INCLUDING TEST.net ****
* source I-FLASH-6BITS
V_Vbias         N16265 0 .35
R_R3         3SB N04936  1Meg  
C_FLASH-64_FFD60_C3         0 FLASH-64_FFD60_Y  10p  
M_FLASH-64_FFD60_NAND_M1         FLASH-64_FFD60_N00589 FLASH-64_FFD60_N00861
+  FLASH-64_FFD60_NAND_N00209 FLASH-64_FFD60_NAND_N00209 CMOSN  
+ L=.18u  
+ W=.18u         
M_FLASH-64_FFD60_NAND_M2         FLASH-64_FFD60_NAND_N00209 FLASH-64_FFD60_X 0
+  0 CMOSN  
+ L=.18u  
+ W=.18u         
M_FLASH-64_FFD60_NAND_M3         FLASH-64_FFD60_N00589 FLASH-64_FFD60_N00861
+  N04936 N04936 CMOSP  
+ L=.18u  
+ W=.2u         
M_FLASH-64_FFD60_NAND_M4         FLASH-64_FFD60_N00589 FLASH-64_FFD60_X N04936
+  N04936 CMOSP  
+ L=.18u  
+ W=.2u         
R_FLASH-64_FFD60_NAND_R1         FLASH-64_FFD60_N00861 0  10Meg  
R_FLASH-64_FFD60_NAND_R2         FLASH-64_FFD60_X 0  10Meg  
M_FLASH-64_FFD60_NAND-3_M2         FLASH-64_FFD60_NAND-3_N05674 N14250
+  FLASH-64_FFD60_NAND-3_N05700 FLASH-64_FFD60_NAND-3_N05700 CMOSN  
+ L=.18u  
+ W=.18u         
M_FLASH-64_FFD60_NAND-3_M3         FLASH-64_FFD60_Y FLASH-64_FFD60_X N04936
+  N04936 CMOSP  
+ L=.18u  
+ W=.2u         
M_FLASH-64_FFD60_NAND-3_M5         FLASH-64_FFD60_Y FLASH-64_FFD60_N00861
+  N04936 N04936 CMOSP  
+ L=.18u  
+ W=.2u         
M_FLASH-64_FFD60_NAND-3_M4         FLASH-64_FFD60_Y N14250 N04936 N04936 CMOSP 
+  
+ L=.18u  
+ W=.2u         
M_FLASH-64_FFD60_NAND-3_M6         FLASH-64_FFD60_NAND-3_N05700
+  FLASH-64_FFD60_N00861 0 0 CMOSN  
+ L=.18u  
+ W=.18u         
M_FLASH-64_FFD60_NAND-3_M1         FLASH-64_FFD60_Y FLASH-64_FFD60_X
+  FLASH-64_FFD60_NAND-3_N05674 FLASH-64_FFD60_NAND-3_N05674 CMOSN  
+ L=.18u  
+ W=.18u         
M_FLASH-64_FFD60_NAND1_M1         FLASH-64_FFD60_N00861 FLASH-64_FFD60_Y
+  FLASH-64_FFD60_NAND1_N00209 FLASH-64_FFD60_NAND1_N00209 CMOSN  
+ L=.18u  
+ W=.18u         
M_FLASH-64_FFD60_NAND1_M2         FLASH-64_FFD60_NAND1_N00209 FLASH-64_N161533
+  0 0 CMOSN  
+ L=.18u  
+ W=.18u         
M_FLASH-64_FFD60_NAND1_M3         FLASH-64_FFD60_N00861 FLASH-64_FFD60_Y N04936
+  N04936 CMOSP  
+ L=.18u  
+ W=.2u         
M_FLASH-64_FFD60_NAND1_M4         FLASH-64_FFD60_N00861 FLASH-64_N161533 N04936
+  N04936 CMOSP  
+ L=.18u  
+ W=.2u         
R_FLASH-64_FFD60_NAND1_R1         FLASH-64_FFD60_Y 0  10Meg  
R_FLASH-64_FFD60_NAND1_R2         FLASH-64_N161533 0  10Meg  
M_FLASH-64_FFD60_NAND3_M1         Q60 FLASH-64_FFD60_X
+  FLASH-64_FFD60_NAND3_N00209 FLASH-64_FFD60_NAND3_N00209 CMOSN  
+ L=.18u  
+ W=.18u         
M_FLASH-64_FFD60_NAND3_M2         FLASH-64_FFD60_NAND3_N00209 -Q60 0 0 CMOSN  
+ L=.18u  
+ W=.18u         
M_FLASH-64_FFD60_NAND3_M3         Q60 FLASH-64_FFD60_X N04936 N04936 CMOSP  
+ L=.18u  
+ W=.2u         
M_FLASH-64_FFD60_NAND3_M4         Q60 -Q60 N04936 N04936 CMOSP  
+ L=.18u  
+ W=.2u         
R_FLASH-64_FFD60_NAND3_R1         FLASH-64_FFD60_X 0  10Meg  
R_FLASH-64_FFD60_NAND3_R2         -Q60 0  10Meg  
M_FLASH-64_FFD60_NAND2_M1         FLASH-64_FFD60_X FLASH-64_FFD60_N00589
+  FLASH-64_FFD60_NAND2_N00209 FLASH-64_FFD60_NAND2_N00209 CMOSN  
+ L=.18u  
+ W=.18u         
M_FLASH-64_FFD60_NAND2_M2         FLASH-64_FFD60_NAND2_N00209 N14250 0 0 CMOSN 
+  
+ L=.18u  
+ W=.18u         
M_FLASH-64_FFD60_NAND2_M3         FLASH-64_FFD60_X FLASH-64_FFD60_N00589 N04936
+  N04936 CMOSP  
+ L=.18u  
+ W=.2u         
M_FLASH-64_FFD60_NAND2_M4         FLASH-64_FFD60_X N14250 N04936 N04936 CMOSP  
+ L=.18u  
+ W=.2u         
R_FLASH-64_FFD60_NAND2_R1         FLASH-64_FFD60_N00589 0  10Meg  
R_FLASH-64_FFD60_NAND2_R2         N14250 0  10Meg  
M_FLASH-64_FFD60_NAND4_M1         -Q60 Q60 FLASH-64_FFD60_NAND4_N00209
+  FLASH-64_FFD60_NAND4_N00209 CMOSN  
+ L=.18u  
+ W=.18u         
M_FLASH-64_FFD60_NAND4_M2         FLASH-64_FFD60_NAND4_N00209 FLASH-64_FFD60_Y
+  0 0 CMOSN  
+ L=.18u  
+ W=.18u         
M_FLASH-64_FFD60_NAND4_M3         -Q60 Q60 N04936 N04936 CMOSP  
+ L=.18u  
+ W=.2u         
M_FLASH-64_FFD60_NAND4_M4         -Q60 FLASH-64_FFD60_Y N04936 N04936 CMOSP  
+ L=.18u  
+ W=.2u         
R_FLASH-64_FFD60_NAND4_R1         Q60 0  10Meg  
R_FLASH-64_FFD60_NAND4_R2         FLASH-64_FFD60_Y 0  10Meg  
M_FLASH-64_C57_M4         FLASH-64_C57_N26867 FLASH-64_C57_N27085 N04936 N04936
+  CMOSP  
+ L=.2u  
+ W=.6u         
M_FLASH-64_C57_M5         FLASH-64_C57_N27149 N16265 0 0 CMOSN  
+ L=.2u  
+ W=.6u         
M_FLASH-64_C57_M6         FLASH-64_N161539 FLASH-64_C57_N26867 N04936 N04936
+  CMOSP  
+ L=.2u  
+ W=.8u         
M_FLASH-64_C57_M7         FLASH-64_N161539 N16265 0 0 CMOSN  
+ L=.2u  
+ W=.4u         
M_FLASH-64_C57_M1         FLASH-64_C57_N27085 N17273 FLASH-64_C57_N27149 0
+  CMOSN  
+ L=.2u  
+ W=.4u         
M_FLASH-64_C57_M2         FLASH-64_C57_N26867 N02462 FLASH-64_C57_N27149 0
+  CMOSN  
+ L=.2u  
+ W=.4u         
M_FLASH-64_C57_M3         FLASH-64_C57_N27085 FLASH-64_C57_N27085 N04936 N04936
+  CMOSP  
+ L=.2u  
+ W=.6u         
M_FLASH-64_C7_M4         FLASH-64_C7_N26867 FLASH-64_C7_N27085 N04936 N04936
+  CMOSP  
+ L=.2u  
+ W=.6u         
M_FLASH-64_C7_M5         FLASH-64_C7_N27149 N16265 0 0 CMOSN  
+ L=.2u  
+ W=.6u         
M_FLASH-64_C7_M6         FLASH-64_N66229 FLASH-64_C7_N26867 N04936 N04936 CMOSP
+   
+ L=.2u  
+ W=.8u         
M_FLASH-64_C7_M7         FLASH-64_N66229 N16265 0 0 CMOSN  
+ L=.2u  
+ W=.4u         
M_FLASH-64_C7_M1         FLASH-64_C7_N27085 N17273 FLASH-64_C7_N27149 0 CMOSN  
+ L=.2u  
+ W=.4u         
M_FLASH-64_C7_M2         FLASH-64_C7_N26867 N01678 FLASH-64_C7_N27149 0 CMOSN  
+ L=.2u  
+ W=.4u         
M_FLASH-64_C7_M3         FLASH-64_C7_N27085 FLASH-64_C7_N27085 N04936 N04936
+  CMOSP  
+ L=.2u  
+ W=.6u         
C_FLASH-64_FFD14_C3         0 FLASH-64_FFD14_Y  10p  
M_FLASH-64_FFD14_NAND_M1         FLASH-64_FFD14_N00589 FLASH-64_FFD14_N00861
+  FLASH-64_FFD14_NAND_N00209 FLASH-64_FFD14_NAND_N00209 CMOSN  
+ L=.18u  
+ W=.18u         
M_FLASH-64_FFD14_NAND_M2         FLASH-64_FFD14_NAND_N00209 FLASH-64_FFD14_X 0
+  0 CMOSN  
+ L=.18u  
+ W=.18u         
M_FLASH-64_FFD14_NAND_M3         FLASH-64_FFD14_N00589 FLASH-64_FFD14_N00861
+  N04936 N04936 CMOSP  
+ L=.18u  
+ W=.2u         
M_FLASH-64_FFD14_NAND_M4         FLASH-64_FFD14_N00589 FLASH-64_FFD14_X N04936
+  N04936 CMOSP  
+ L=.18u  
+ W=.2u         
R_FLASH-64_FFD14_NAND_R1         FLASH-64_FFD14_N00861 0  10Meg  
R_FLASH-64_FFD14_NAND_R2         FLASH-64_FFD14_X 0  10Meg  
M_FLASH-64_FFD14_NAND-3_M2         FLASH-64_FFD14_NAND-3_N05674 N14250
+  FLASH-64_FFD14_NAND-3_N05700 FLASH-64_FFD14_NAND-3_N05700 CMOSN  
+ L=.18u  
+ W=.18u         
M_FLASH-64_FFD14_NAND-3_M3         FLASH-64_FFD14_Y FLASH-64_FFD14_X N04936
+  N04936 CMOSP  
+ L=.18u  
+ W=.2u         
M_FLASH-64_FFD14_NAND-3_M5         FLASH-64_FFD14_Y FLASH-64_FFD14_N00861
+  N04936 N04936 CMOSP  
+ L=.18u  
+ W=.2u         
M_FLASH-64_FFD14_NAND-3_M4         FLASH-64_FFD14_Y N14250 N04936 N04936 CMOSP 
+  
+ L=.18u  
+ W=.2u         
M_FLASH-64_FFD14_NAND-3_M6         FLASH-64_FFD14_NAND-3_N05700
+  FLASH-64_FFD14_N00861 0 0 CMOSN  
+ L=.18u  
+ W=.18u         
M_FLASH-64_FFD14_NAND-3_M1         FLASH-64_FFD14_Y FLASH-64_FFD14_X
+  FLASH-64_FFD14_NAND-3_N05674 FLASH-64_FFD14_NAND-3_N05674 CMOSN  
+ L=.18u  
+ W=.18u         
M_FLASH-64_FFD14_NAND1_M1         FLASH-64_FFD14_N00861 FLASH-64_FFD14_Y
+  FLASH-64_FFD14_NAND1_N00209 FLASH-64_FFD14_NAND1_N00209 CMOSN  
+ L=.18u  
+ W=.18u         
M_FLASH-64_FFD14_NAND1_M2         FLASH-64_FFD14_NAND1_N00209 FLASH-64_N68746 0
+  0 CMOSN  
+ L=.18u  
+ W=.18u         
M_FLASH-64_FFD14_NAND1_M3         FLASH-64_FFD14_N00861 FLASH-64_FFD14_Y N04936
+  N04936 CMOSP  
+ L=.18u  
+ W=.2u         
M_FLASH-64_FFD14_NAND1_M4         FLASH-64_FFD14_N00861 FLASH-64_N68746 N04936
+  N04936 CMOSP  
+ L=.18u  
+ W=.2u         
R_FLASH-64_FFD14_NAND1_R1         FLASH-64_FFD14_Y 0  10Meg  
R_FLASH-64_FFD14_NAND1_R2         FLASH-64_N68746 0  10Meg  
M_FLASH-64_FFD14_NAND3_M1         Q14 FLASH-64_FFD14_X
+  FLASH-64_FFD14_NAND3_N00209 FLASH-64_FFD14_NAND3_N00209 CMOSN  
+ L=.18u  
+ W=.18u         
M_FLASH-64_FFD14_NAND3_M2         FLASH-64_FFD14_NAND3_N00209 -Q14 0 0 CMOSN  
+ L=.18u  
+ W=.18u         
M_FLASH-64_FFD14_NAND3_M3         Q14 FLASH-64_FFD14_X N04936 N04936 CMOSP  
+ L=.18u  
+ W=.2u         
M_FLASH-64_FFD14_NAND3_M4         Q14 -Q14 N04936 N04936 CMOSP  
+ L=.18u  
+ W=.2u         
R_FLASH-64_FFD14_NAND3_R1         FLASH-64_FFD14_X 0  10Meg  
R_FLASH-64_FFD14_NAND3_R2         -Q14 0  10Meg  
M_FLASH-64_FFD14_NAND2_M1         FLASH-64_FFD14_X FLASH-64_FFD14_N00589
+  FLASH-64_FFD14_NAND2_N00209 FLASH-64_FFD14_NAND2_N00209 CMOSN  
+ L=.18u  
+ W=.18u         
M_FLASH-64_FFD14_NAND2_M2         FLASH-64_FFD14_NAND2_N00209 N14250 0 0 CMOSN 
+  
+ L=.18u  
+ W=.18u         
M_FLASH-64_FFD14_NAND2_M3         FLASH-64_FFD14_X FLASH-64_FFD14_N00589 N04936
+  N04936 CMOSP  
+ L=.18u  
+ W=.2u         
M_FLASH-64_FFD14_NAND2_M4         FLASH-64_FFD14_X N14250 N04936 N04936 CMOSP  
+ L=.18u  
+ W=.2u         
R_FLASH-64_FFD14_NAND2_R1         FLASH-64_FFD14_N00589 0  10Meg  
R_FLASH-64_FFD14_NAND2_R2         N14250 0  10Meg  
M_FLASH-64_FFD14_NAND4_M1         -Q14 Q14 FLASH-64_FFD14_NAND4_N00209
+  FLASH-64_FFD14_NAND4_N00209 CMOSN  
+ L=.18u  
+ W=.18u         
M_FLASH-64_FFD14_NAND4_M2         FLASH-64_FFD14_NAND4_N00209 FLASH-64_FFD14_Y
+  0 0 CMOSN  
+ L=.18u  
+ W=.18u         
M_FLASH-64_FFD14_NAND4_M3         -Q14 Q14 N04936 N04936 CMOSP  
+ L=.18u  
+ W=.2u         
M_FLASH-64_FFD14_NAND4_M4         -Q14 FLASH-64_FFD14_Y N04936 N04936 CMOSP  
+ L=.18u  
+ W=.2u         
R_FLASH-64_FFD14_NAND4_R1         Q14 0  10Meg  
R_FLASH-64_FFD14_NAND4_R2         FLASH-64_FFD14_Y 0  10Meg  
M_FLASH-64_C10_M4         FLASH-64_C10_N26867 FLASH-64_C10_N27085 N04936 N04936
+  CMOSP  
+ L=.2u  
+ W=.6u         
M_FLASH-64_C10_M5         FLASH-64_C10_N27149 N16265 0 0 CMOSN  
+ L=.2u  
+ W=.6u         
M_FLASH-64_C10_M6         FLASH-64_N68758 FLASH-64_C10_N26867 N04936 N04936
+  CMOSP  
+ L=.2u  
+ W=.8u         
M_FLASH-64_C10_M7         FLASH-64_N68758 N16265 0 0 CMOSN  
+ L=.2u  
+ W=.4u         
M_FLASH-64_C10_M1         FLASH-64_C10_N27085 N17273 FLASH-64_C10_N27149 0
+  CMOSN  
+ L=.2u  
+ W=.4u         
M_FLASH-64_C10_M2         FLASH-64_C10_N26867 N01688 FLASH-64_C10_N27149 0
+  CMOSN  
+ L=.2u  
+ W=.4u         
M_FLASH-64_C10_M3         FLASH-64_C10_N27085 FLASH-64_C10_N27085 N04936 N04936
+  CMOSP  
+ L=.2u  
+ W=.6u         
R_FLASH-64_R22         FLASH-64_N1284591 0  1Meg  
C_FLASH-64_FFD33_C3         0 FLASH-64_FFD33_Y  10p  
M_FLASH-64_FFD33_NAND_M1         FLASH-64_FFD33_N00589 FLASH-64_FFD33_N00861
+  FLASH-64_FFD33_NAND_N00209 FLASH-64_FFD33_NAND_N00209 CMOSN  
+ L=.18u  
+ W=.18u         
M_FLASH-64_FFD33_NAND_M2         FLASH-64_FFD33_NAND_N00209 FLASH-64_FFD33_X 0
+  0 CMOSN  
+ L=.18u  
+ W=.18u         
M_FLASH-64_FFD33_NAND_M3         FLASH-64_FFD33_N00589 FLASH-64_FFD33_N00861
+  N04936 N04936 CMOSP  
+ L=.18u  
+ W=.2u         
M_FLASH-64_FFD33_NAND_M4         FLASH-64_FFD33_N00589 FLASH-64_FFD33_X N04936
+  N04936 CMOSP  
+ L=.18u  
+ W=.2u         
R_FLASH-64_FFD33_NAND_R1         FLASH-64_FFD33_N00861 0  10Meg  
R_FLASH-64_FFD33_NAND_R2         FLASH-64_FFD33_X 0  10Meg  
M_FLASH-64_FFD33_NAND-3_M2         FLASH-64_FFD33_NAND-3_N05674 N14250
+  FLASH-64_FFD33_NAND-3_N05700 FLASH-64_FFD33_NAND-3_N05700 CMOSN  
+ L=.18u  
+ W=.18u         
M_FLASH-64_FFD33_NAND-3_M3         FLASH-64_FFD33_Y FLASH-64_FFD33_X N04936
+  N04936 CMOSP  
+ L=.18u  
+ W=.2u         
M_FLASH-64_FFD33_NAND-3_M5         FLASH-64_FFD33_Y FLASH-64_FFD33_N00861
+  N04936 N04936 CMOSP  
+ L=.18u  
+ W=.2u         
M_FLASH-64_FFD33_NAND-3_M4         FLASH-64_FFD33_Y N14250 N04936 N04936 CMOSP 
+  
+ L=.18u  
+ W=.2u         
M_FLASH-64_FFD33_NAND-3_M6         FLASH-64_FFD33_NAND-3_N05700
+  FLASH-64_FFD33_N00861 0 0 CMOSN  
+ L=.18u  
+ W=.18u         
M_FLASH-64_FFD33_NAND-3_M1         FLASH-64_FFD33_Y FLASH-64_FFD33_X
+  FLASH-64_FFD33_NAND-3_N05674 FLASH-64_FFD33_NAND-3_N05674 CMOSN  
+ L=.18u  
+ W=.18u         
M_FLASH-64_FFD33_NAND1_M1         FLASH-64_FFD33_N00861 FLASH-64_FFD33_Y
+  FLASH-64_FFD33_NAND1_N00209 FLASH-64_FFD33_NAND1_N00209 CMOSN  
+ L=.18u  
+ W=.18u         
M_FLASH-64_FFD33_NAND1_M2         FLASH-64_FFD33_NAND1_N00209 FLASH-64_N128111
+  0 0 CMOSN  
+ L=.18u  
+ W=.18u         
M_FLASH-64_FFD33_NAND1_M3         FLASH-64_FFD33_N00861 FLASH-64_FFD33_Y N04936
+  N04936 CMOSP  
+ L=.18u  
+ W=.2u         
M_FLASH-64_FFD33_NAND1_M4         FLASH-64_FFD33_N00861 FLASH-64_N128111 N04936
+  N04936 CMOSP  
+ L=.18u  
+ W=.2u         
R_FLASH-64_FFD33_NAND1_R1         FLASH-64_FFD33_Y 0  10Meg  
R_FLASH-64_FFD33_NAND1_R2         FLASH-64_N128111 0  10Meg  
M_FLASH-64_FFD33_NAND3_M1         Q33 FLASH-64_FFD33_X
+  FLASH-64_FFD33_NAND3_N00209 FLASH-64_FFD33_NAND3_N00209 CMOSN  
+ L=.18u  
+ W=.18u         
M_FLASH-64_FFD33_NAND3_M2         FLASH-64_FFD33_NAND3_N00209 FLASH-64_N1275631
+  0 0 CMOSN  
+ L=.18u  
+ W=.18u         
M_FLASH-64_FFD33_NAND3_M3         Q33 FLASH-64_FFD33_X N04936 N04936 CMOSP  
+ L=.18u  
+ W=.2u         
M_FLASH-64_FFD33_NAND3_M4         Q33 FLASH-64_N1275631 N04936 N04936 CMOSP  
+ L=.18u  
+ W=.2u         
R_FLASH-64_FFD33_NAND3_R1         FLASH-64_FFD33_X 0  10Meg  
R_FLASH-64_FFD33_NAND3_R2         FLASH-64_N1275631 0  10Meg  
M_FLASH-64_FFD33_NAND2_M1         FLASH-64_FFD33_X FLASH-64_FFD33_N00589
+  FLASH-64_FFD33_NAND2_N00209 FLASH-64_FFD33_NAND2_N00209 CMOSN  
+ L=.18u  
+ W=.18u         
M_FLASH-64_FFD33_NAND2_M2         FLASH-64_FFD33_NAND2_N00209 N14250 0 0 CMOSN 
+  
+ L=.18u  
+ W=.18u         
M_FLASH-64_FFD33_NAND2_M3         FLASH-64_FFD33_X FLASH-64_FFD33_N00589 N04936
+  N04936 CMOSP  
+ L=.18u  
+ W=.2u         
M_FLASH-64_FFD33_NAND2_M4         FLASH-64_FFD33_X N14250 N04936 N04936 CMOSP  
+ L=.18u  
+ W=.2u         
R_FLASH-64_FFD33_NAND2_R1         FLASH-64_FFD33_N00589 0  10Meg  
R_FLASH-64_FFD33_NAND2_R2         N14250 0  10Meg  
M_FLASH-64_FFD33_NAND4_M1         FLASH-64_N1275631 Q33
+  FLASH-64_FFD33_NAND4_N00209 FLASH-64_FFD33_NAND4_N00209 CMOSN  
+ L=.18u  
+ W=.18u         
M_FLASH-64_FFD33_NAND4_M2         FLASH-64_FFD33_NAND4_N00209 FLASH-64_FFD33_Y
+  0 0 CMOSN  
+ L=.18u  
+ W=.18u         
M_FLASH-64_FFD33_NAND4_M3         FLASH-64_N1275631 Q33 N04936 N04936 CMOSP  
+ L=.18u  
+ W=.2u         
M_FLASH-64_FFD33_NAND4_M4         FLASH-64_N1275631 FLASH-64_FFD33_Y N04936
+  N04936 CMOSP  
+ L=.18u  
+ W=.2u         
R_FLASH-64_FFD33_NAND4_R1         Q33 0  10Meg  
R_FLASH-64_FFD33_NAND4_R2         FLASH-64_FFD33_Y 0  10Meg  
C_FLASH-64_FFD26_C3         0 FLASH-64_FFD26_Y  10p  
M_FLASH-64_FFD26_NAND_M1         FLASH-64_FFD26_N00589 FLASH-64_FFD26_N00861
+  FLASH-64_FFD26_NAND_N00209 FLASH-64_FFD26_NAND_N00209 CMOSN  
+ L=.18u  
+ W=.18u         
M_FLASH-64_FFD26_NAND_M2         FLASH-64_FFD26_NAND_N00209 FLASH-64_FFD26_X 0
+  0 CMOSN  
+ L=.18u  
+ W=.18u         
M_FLASH-64_FFD26_NAND_M3         FLASH-64_FFD26_N00589 FLASH-64_FFD26_N00861
+  N04936 N04936 CMOSP  
+ L=.18u  
+ W=.2u         
M_FLASH-64_FFD26_NAND_M4         FLASH-64_FFD26_N00589 FLASH-64_FFD26_X N04936
+  N04936 CMOSP  
+ L=.18u  
+ W=.2u         
R_FLASH-64_FFD26_NAND_R1         FLASH-64_FFD26_N00861 0  10Meg  
R_FLASH-64_FFD26_NAND_R2         FLASH-64_FFD26_X 0  10Meg  
M_FLASH-64_FFD26_NAND-3_M2         FLASH-64_FFD26_NAND-3_N05674 N14250
+  FLASH-64_FFD26_NAND-3_N05700 FLASH-64_FFD26_NAND-3_N05700 CMOSN  
+ L=.18u  
+ W=.18u         
M_FLASH-64_FFD26_NAND-3_M3         FLASH-64_FFD26_Y FLASH-64_FFD26_X N04936
+  N04936 CMOSP  
+ L=.18u  
+ W=.2u         
M_FLASH-64_FFD26_NAND-3_M5         FLASH-64_FFD26_Y FLASH-64_FFD26_N00861
+  N04936 N04936 CMOSP  
+ L=.18u  
+ W=.2u         
M_FLASH-64_FFD26_NAND-3_M4         FLASH-64_FFD26_Y N14250 N04936 N04936 CMOSP 
+  
+ L=.18u  
+ W=.2u         
M_FLASH-64_FFD26_NAND-3_M6         FLASH-64_FFD26_NAND-3_N05700
+  FLASH-64_FFD26_N00861 0 0 CMOSN  
+ L=.18u  
+ W=.18u         
M_FLASH-64_FFD26_NAND-3_M1         FLASH-64_FFD26_Y FLASH-64_FFD26_X
+  FLASH-64_FFD26_NAND-3_N05674 FLASH-64_FFD26_NAND-3_N05674 CMOSN  
+ L=.18u  
+ W=.18u         
M_FLASH-64_FFD26_NAND1_M1         FLASH-64_FFD26_N00861 FLASH-64_FFD26_Y
+  FLASH-64_FFD26_NAND1_N00209 FLASH-64_FFD26_NAND1_N00209 CMOSN  
+ L=.18u  
+ W=.18u         
M_FLASH-64_FFD26_NAND1_M2         FLASH-64_FFD26_NAND1_N00209 FLASH-64_N106681
+  0 0 CMOSN  
+ L=.18u  
+ W=.18u         
M_FLASH-64_FFD26_NAND1_M3         FLASH-64_FFD26_N00861 FLASH-64_FFD26_Y N04936
+  N04936 CMOSP  
+ L=.18u  
+ W=.2u         
M_FLASH-64_FFD26_NAND1_M4         FLASH-64_FFD26_N00861 FLASH-64_N106681 N04936
+  N04936 CMOSP  
+ L=.18u  
+ W=.2u         
R_FLASH-64_FFD26_NAND1_R1         FLASH-64_FFD26_Y 0  10Meg  
R_FLASH-64_FFD26_NAND1_R2         FLASH-64_N106681 0  10Meg  
M_FLASH-64_FFD26_NAND3_M1         Q26 FLASH-64_FFD26_X
+  FLASH-64_FFD26_NAND3_N00209 FLASH-64_FFD26_NAND3_N00209 CMOSN  
+ L=.18u  
+ W=.18u         
M_FLASH-64_FFD26_NAND3_M2         FLASH-64_FFD26_NAND3_N00209 -Q26 0 0 CMOSN  
+ L=.18u  
+ W=.18u         
M_FLASH-64_FFD26_NAND3_M3         Q26 FLASH-64_FFD26_X N04936 N04936 CMOSP  
+ L=.18u  
+ W=.2u         
M_FLASH-64_FFD26_NAND3_M4         Q26 -Q26 N04936 N04936 CMOSP  
+ L=.18u  
+ W=.2u         
R_FLASH-64_FFD26_NAND3_R1         FLASH-64_FFD26_X 0  10Meg  
R_FLASH-64_FFD26_NAND3_R2         -Q26 0  10Meg  
M_FLASH-64_FFD26_NAND2_M1         FLASH-64_FFD26_X FLASH-64_FFD26_N00589
+  FLASH-64_FFD26_NAND2_N00209 FLASH-64_FFD26_NAND2_N00209 CMOSN  
+ L=.18u  
+ W=.18u         
M_FLASH-64_FFD26_NAND2_M2         FLASH-64_FFD26_NAND2_N00209 N14250 0 0 CMOSN 
+  
+ L=.18u  
+ W=.18u         
M_FLASH-64_FFD26_NAND2_M3         FLASH-64_FFD26_X FLASH-64_FFD26_N00589 N04936
+  N04936 CMOSP  
+ L=.18u  
+ W=.2u         
M_FLASH-64_FFD26_NAND2_M4         FLASH-64_FFD26_X N14250 N04936 N04936 CMOSP  
+ L=.18u  
+ W=.2u         
R_FLASH-64_FFD26_NAND2_R1         FLASH-64_FFD26_N00589 0  10Meg  
R_FLASH-64_FFD26_NAND2_R2         N14250 0  10Meg  
M_FLASH-64_FFD26_NAND4_M1         -Q26 Q26 FLASH-64_FFD26_NAND4_N00209
+  FLASH-64_FFD26_NAND4_N00209 CMOSN  
+ L=.18u  
+ W=.18u         
M_FLASH-64_FFD26_NAND4_M2         FLASH-64_FFD26_NAND4_N00209 FLASH-64_FFD26_Y
+  0 0 CMOSN  
+ L=.18u  
+ W=.18u         
M_FLASH-64_FFD26_NAND4_M3         -Q26 Q26 N04936 N04936 CMOSP  
+ L=.18u  
+ W=.2u         
M_FLASH-64_FFD26_NAND4_M4         -Q26 FLASH-64_FFD26_Y N04936 N04936 CMOSP  
+ L=.18u  
+ W=.2u         
R_FLASH-64_FFD26_NAND4_R1         Q26 0  10Meg  
R_FLASH-64_FFD26_NAND4_R2         FLASH-64_FFD26_Y 0  10Meg  
C_FLASH-64_FFD51_C3         0 FLASH-64_FFD51_Y  10p  
M_FLASH-64_FFD51_NAND_M1         FLASH-64_FFD51_N00589 FLASH-64_FFD51_N00861
+  FLASH-64_FFD51_NAND_N00209 FLASH-64_FFD51_NAND_N00209 CMOSN  
+ L=.18u  
+ W=.18u         
M_FLASH-64_FFD51_NAND_M2         FLASH-64_FFD51_NAND_N00209 FLASH-64_FFD51_X 0
+  0 CMOSN  
+ L=.18u  
+ W=.18u         
M_FLASH-64_FFD51_NAND_M3         FLASH-64_FFD51_N00589 FLASH-64_FFD51_N00861
+  N04936 N04936 CMOSP  
+ L=.18u  
+ W=.2u         
M_FLASH-64_FFD51_NAND_M4         FLASH-64_FFD51_N00589 FLASH-64_FFD51_X N04936
+  N04936 CMOSP  
+ L=.18u  
+ W=.2u         
R_FLASH-64_FFD51_NAND_R1         FLASH-64_FFD51_N00861 0  10Meg  
R_FLASH-64_FFD51_NAND_R2         FLASH-64_FFD51_X 0  10Meg  
M_FLASH-64_FFD51_NAND-3_M2         FLASH-64_FFD51_NAND-3_N05674 N14250
+  FLASH-64_FFD51_NAND-3_N05700 FLASH-64_FFD51_NAND-3_N05700 CMOSN  
+ L=.18u  
+ W=.18u         
M_FLASH-64_FFD51_NAND-3_M3         FLASH-64_FFD51_Y FLASH-64_FFD51_X N04936
+  N04936 CMOSP  
+ L=.18u  
+ W=.2u         
M_FLASH-64_FFD51_NAND-3_M5         FLASH-64_FFD51_Y FLASH-64_FFD51_N00861
+  N04936 N04936 CMOSP  
+ L=.18u  
+ W=.2u         
M_FLASH-64_FFD51_NAND-3_M4         FLASH-64_FFD51_Y N14250 N04936 N04936 CMOSP 
+  
+ L=.18u  
+ W=.2u         
M_FLASH-64_FFD51_NAND-3_M6         FLASH-64_FFD51_NAND-3_N05700
+  FLASH-64_FFD51_N00861 0 0 CMOSN  
+ L=.18u  
+ W=.18u         
M_FLASH-64_FFD51_NAND-3_M1         FLASH-64_FFD51_Y FLASH-64_FFD51_X
+  FLASH-64_FFD51_NAND-3_N05674 FLASH-64_FFD51_NAND-3_N05674 CMOSN  
+ L=.18u  
+ W=.18u         
M_FLASH-64_FFD51_NAND1_M1         FLASH-64_FFD51_N00861 FLASH-64_FFD51_Y
+  FLASH-64_FFD51_NAND1_N00209 FLASH-64_FFD51_NAND1_N00209 CMOSN  
+ L=.18u  
+ W=.18u         
M_FLASH-64_FFD51_NAND1_M2         FLASH-64_FFD51_NAND1_N00209 FLASH-64_N160379
+  0 0 CMOSN  
+ L=.18u  
+ W=.18u         
M_FLASH-64_FFD51_NAND1_M3         FLASH-64_FFD51_N00861 FLASH-64_FFD51_Y N04936
+  N04936 CMOSP  
+ L=.18u  
+ W=.2u         
M_FLASH-64_FFD51_NAND1_M4         FLASH-64_FFD51_N00861 FLASH-64_N160379 N04936
+  N04936 CMOSP  
+ L=.18u  
+ W=.2u         
R_FLASH-64_FFD51_NAND1_R1         FLASH-64_FFD51_Y 0  10Meg  
R_FLASH-64_FFD51_NAND1_R2         FLASH-64_N160379 0  10Meg  
M_FLASH-64_FFD51_NAND3_M1         Q51 FLASH-64_FFD51_X
+  FLASH-64_FFD51_NAND3_N00209 FLASH-64_FFD51_NAND3_N00209 CMOSN  
+ L=.18u  
+ W=.18u         
M_FLASH-64_FFD51_NAND3_M2         FLASH-64_FFD51_NAND3_N00209 FLASH-64_N1600211
+  0 0 CMOSN  
+ L=.18u  
+ W=.18u         
M_FLASH-64_FFD51_NAND3_M3         Q51 FLASH-64_FFD51_X N04936 N04936 CMOSP  
+ L=.18u  
+ W=.2u         
M_FLASH-64_FFD51_NAND3_M4         Q51 FLASH-64_N1600211 N04936 N04936 CMOSP  
+ L=.18u  
+ W=.2u         
R_FLASH-64_FFD51_NAND3_R1         FLASH-64_FFD51_X 0  10Meg  
R_FLASH-64_FFD51_NAND3_R2         FLASH-64_N1600211 0  10Meg  
M_FLASH-64_FFD51_NAND2_M1         FLASH-64_FFD51_X FLASH-64_FFD51_N00589
+  FLASH-64_FFD51_NAND2_N00209 FLASH-64_FFD51_NAND2_N00209 CMOSN  
+ L=.18u  
+ W=.18u         
M_FLASH-64_FFD51_NAND2_M2         FLASH-64_FFD51_NAND2_N00209 N14250 0 0 CMOSN 
+  
+ L=.18u  
+ W=.18u         
M_FLASH-64_FFD51_NAND2_M3         FLASH-64_FFD51_X FLASH-64_FFD51_N00589 N04936
+  N04936 CMOSP  
+ L=.18u  
+ W=.2u         
M_FLASH-64_FFD51_NAND2_M4         FLASH-64_FFD51_X N14250 N04936 N04936 CMOSP  
+ L=.18u  
+ W=.2u         
R_FLASH-64_FFD51_NAND2_R1         FLASH-64_FFD51_N00589 0  10Meg  
R_FLASH-64_FFD51_NAND2_R2         N14250 0  10Meg  
M_FLASH-64_FFD51_NAND4_M1         FLASH-64_N1600211 Q51
+  FLASH-64_FFD51_NAND4_N00209 FLASH-64_FFD51_NAND4_N00209 CMOSN  
+ L=.18u  
+ W=.18u         
M_FLASH-64_FFD51_NAND4_M2         FLASH-64_FFD51_NAND4_N00209 FLASH-64_FFD51_Y
+  0 0 CMOSN  
+ L=.18u  
+ W=.18u         
M_FLASH-64_FFD51_NAND4_M3         FLASH-64_N1600211 Q51 N04936 N04936 CMOSP  
+ L=.18u  
+ W=.2u         
M_FLASH-64_FFD51_NAND4_M4         FLASH-64_N1600211 FLASH-64_FFD51_Y N04936
+  N04936 CMOSP  
+ L=.18u  
+ W=.2u         
R_FLASH-64_FFD51_NAND4_R1         Q51 0  10Meg  
R_FLASH-64_FFD51_NAND4_R2         FLASH-64_FFD51_Y 0  10Meg  
R_FLASH-64_R14         FLASH-64_N1062971 0  1Meg  
R_FLASH-64_R31         FLASH-64_N1610051 0  1Meg  
C_FLASH-64_FFD17_C3         0 FLASH-64_FFD17_Y  10p  
M_FLASH-64_FFD17_NAND_M1         FLASH-64_FFD17_N00589 FLASH-64_FFD17_N00861
+  FLASH-64_FFD17_NAND_N00209 FLASH-64_FFD17_NAND_N00209 CMOSN  
+ L=.18u  
+ W=.18u         
M_FLASH-64_FFD17_NAND_M2         FLASH-64_FFD17_NAND_N00209 FLASH-64_FFD17_X 0
+  0 CMOSN  
+ L=.18u  
+ W=.18u         
M_FLASH-64_FFD17_NAND_M3         FLASH-64_FFD17_N00589 FLASH-64_FFD17_N00861
+  N04936 N04936 CMOSP  
+ L=.18u  
+ W=.2u         
M_FLASH-64_FFD17_NAND_M4         FLASH-64_FFD17_N00589 FLASH-64_FFD17_X N04936
+  N04936 CMOSP  
+ L=.18u  
+ W=.2u         
R_FLASH-64_FFD17_NAND_R1         FLASH-64_FFD17_N00861 0  10Meg  
R_FLASH-64_FFD17_NAND_R2         FLASH-64_FFD17_X 0  10Meg  
M_FLASH-64_FFD17_NAND-3_M2         FLASH-64_FFD17_NAND-3_N05674 N14250
+  FLASH-64_FFD17_NAND-3_N05700 FLASH-64_FFD17_NAND-3_N05700 CMOSN  
+ L=.18u  
+ W=.18u         
M_FLASH-64_FFD17_NAND-3_M3         FLASH-64_FFD17_Y FLASH-64_FFD17_X N04936
+  N04936 CMOSP  
+ L=.18u  
+ W=.2u         
M_FLASH-64_FFD17_NAND-3_M5         FLASH-64_FFD17_Y FLASH-64_FFD17_N00861
+  N04936 N04936 CMOSP  
+ L=.18u  
+ W=.2u         
M_FLASH-64_FFD17_NAND-3_M4         FLASH-64_FFD17_Y N14250 N04936 N04936 CMOSP 
+  
+ L=.18u  
+ W=.2u         
M_FLASH-64_FFD17_NAND-3_M6         FLASH-64_FFD17_NAND-3_N05700
+  FLASH-64_FFD17_N00861 0 0 CMOSN  
+ L=.18u  
+ W=.18u         
M_FLASH-64_FFD17_NAND-3_M1         FLASH-64_FFD17_Y FLASH-64_FFD17_X
+  FLASH-64_FFD17_NAND-3_N05674 FLASH-64_FFD17_NAND-3_N05674 CMOSN  
+ L=.18u  
+ W=.18u         
M_FLASH-64_FFD17_NAND1_M1         FLASH-64_FFD17_N00861 FLASH-64_FFD17_Y
+  FLASH-64_FFD17_NAND1_N00209 FLASH-64_FFD17_NAND1_N00209 CMOSN  
+ L=.18u  
+ W=.18u         
M_FLASH-64_FFD17_NAND1_M2         FLASH-64_FFD17_NAND1_N00209 FLASH-64_N105949
+  0 0 CMOSN  
+ L=.18u  
+ W=.18u         
M_FLASH-64_FFD17_NAND1_M3         FLASH-64_FFD17_N00861 FLASH-64_FFD17_Y N04936
+  N04936 CMOSP  
+ L=.18u  
+ W=.2u         
M_FLASH-64_FFD17_NAND1_M4         FLASH-64_FFD17_N00861 FLASH-64_N105949 N04936
+  N04936 CMOSP  
+ L=.18u  
+ W=.2u         
R_FLASH-64_FFD17_NAND1_R1         FLASH-64_FFD17_Y 0  10Meg  
R_FLASH-64_FFD17_NAND1_R2         FLASH-64_N105949 0  10Meg  
M_FLASH-64_FFD17_NAND3_M1         Q17 FLASH-64_FFD17_X
+  FLASH-64_FFD17_NAND3_N00209 FLASH-64_FFD17_NAND3_N00209 CMOSN  
+ L=.18u  
+ W=.18u         
M_FLASH-64_FFD17_NAND3_M2         FLASH-64_FFD17_NAND3_N00209 FLASH-64_N1054011
+  0 0 CMOSN  
+ L=.18u  
+ W=.18u         
M_FLASH-64_FFD17_NAND3_M3         Q17 FLASH-64_FFD17_X N04936 N04936 CMOSP  
+ L=.18u  
+ W=.2u         
M_FLASH-64_FFD17_NAND3_M4         Q17 FLASH-64_N1054011 N04936 N04936 CMOSP  
+ L=.18u  
+ W=.2u         
R_FLASH-64_FFD17_NAND3_R1         FLASH-64_FFD17_X 0  10Meg  
R_FLASH-64_FFD17_NAND3_R2         FLASH-64_N1054011 0  10Meg  
M_FLASH-64_FFD17_NAND2_M1         FLASH-64_FFD17_X FLASH-64_FFD17_N00589
+  FLASH-64_FFD17_NAND2_N00209 FLASH-64_FFD17_NAND2_N00209 CMOSN  
+ L=.18u  
+ W=.18u         
M_FLASH-64_FFD17_NAND2_M2         FLASH-64_FFD17_NAND2_N00209 N14250 0 0 CMOSN 
+  
+ L=.18u  
+ W=.18u         
M_FLASH-64_FFD17_NAND2_M3         FLASH-64_FFD17_X FLASH-64_FFD17_N00589 N04936
+  N04936 CMOSP  
+ L=.18u  
+ W=.2u         
M_FLASH-64_FFD17_NAND2_M4         FLASH-64_FFD17_X N14250 N04936 N04936 CMOSP  
+ L=.18u  
+ W=.2u         
R_FLASH-64_FFD17_NAND2_R1         FLASH-64_FFD17_N00589 0  10Meg  
R_FLASH-64_FFD17_NAND2_R2         N14250 0  10Meg  
M_FLASH-64_FFD17_NAND4_M1         FLASH-64_N1054011 Q17
+  FLASH-64_FFD17_NAND4_N00209 FLASH-64_FFD17_NAND4_N00209 CMOSN  
+ L=.18u  
+ W=.18u         
M_FLASH-64_FFD17_NAND4_M2         FLASH-64_FFD17_NAND4_N00209 FLASH-64_FFD17_Y
+  0 0 CMOSN  
+ L=.18u  
+ W=.18u         
M_FLASH-64_FFD17_NAND4_M3         FLASH-64_N1054011 Q17 N04936 N04936 CMOSP  
+ L=.18u  
+ W=.2u         
M_FLASH-64_FFD17_NAND4_M4         FLASH-64_N1054011 FLASH-64_FFD17_Y N04936
+  N04936 CMOSP  
+ L=.18u  
+ W=.2u         
R_FLASH-64_FFD17_NAND4_R1         Q17 0  10Meg  
R_FLASH-64_FFD17_NAND4_R2         FLASH-64_FFD17_Y 0  10Meg  
C_FLASH-64_FFD43_C3         0 FLASH-64_FFD43_Y  10p  
M_FLASH-64_FFD43_NAND_M1         FLASH-64_FFD43_N00589 FLASH-64_FFD43_N00861
+  FLASH-64_FFD43_NAND_N00209 FLASH-64_FFD43_NAND_N00209 CMOSN  
+ L=.18u  
+ W=.18u         
M_FLASH-64_FFD43_NAND_M2         FLASH-64_FFD43_NAND_N00209 FLASH-64_FFD43_X 0
+  0 CMOSN  
+ L=.18u  
+ W=.18u         
M_FLASH-64_FFD43_NAND_M3         FLASH-64_FFD43_N00589 FLASH-64_FFD43_N00861
+  N04936 N04936 CMOSP  
+ L=.18u  
+ W=.2u         
M_FLASH-64_FFD43_NAND_M4         FLASH-64_FFD43_N00589 FLASH-64_FFD43_X N04936
+  N04936 CMOSP  
+ L=.18u  
+ W=.2u         
R_FLASH-64_FFD43_NAND_R1         FLASH-64_FFD43_N00861 0  10Meg  
R_FLASH-64_FFD43_NAND_R2         FLASH-64_FFD43_X 0  10Meg  
M_FLASH-64_FFD43_NAND-3_M2         FLASH-64_FFD43_NAND-3_N05674 N14250
+  FLASH-64_FFD43_NAND-3_N05700 FLASH-64_FFD43_NAND-3_N05700 CMOSN  
+ L=.18u  
+ W=.18u         
M_FLASH-64_FFD43_NAND-3_M3         FLASH-64_FFD43_Y FLASH-64_FFD43_X N04936
+  N04936 CMOSP  
+ L=.18u  
+ W=.2u         
M_FLASH-64_FFD43_NAND-3_M5         FLASH-64_FFD43_Y FLASH-64_FFD43_N00861
+  N04936 N04936 CMOSP  
+ L=.18u  
+ W=.2u         
M_FLASH-64_FFD43_NAND-3_M4         FLASH-64_FFD43_Y N14250 N04936 N04936 CMOSP 
+  
+ L=.18u  
+ W=.2u         
M_FLASH-64_FFD43_NAND-3_M6         FLASH-64_FFD43_NAND-3_N05700
+  FLASH-64_FFD43_N00861 0 0 CMOSN  
+ L=.18u  
+ W=.18u         
M_FLASH-64_FFD43_NAND-3_M1         FLASH-64_FFD43_Y FLASH-64_FFD43_X
+  FLASH-64_FFD43_NAND-3_N05674 FLASH-64_FFD43_NAND-3_N05674 CMOSN  
+ L=.18u  
+ W=.18u         
M_FLASH-64_FFD43_NAND1_M1         FLASH-64_FFD43_N00861 FLASH-64_FFD43_Y
+  FLASH-64_FFD43_NAND1_N00209 FLASH-64_FFD43_NAND1_N00209 CMOSN  
+ L=.18u  
+ W=.18u         
M_FLASH-64_FFD43_NAND1_M2         FLASH-64_FFD43_NAND1_N00209 FLASH-64_N128837
+  0 0 CMOSN  
+ L=.18u  
+ W=.18u         
M_FLASH-64_FFD43_NAND1_M3         FLASH-64_FFD43_N00861 FLASH-64_FFD43_Y N04936
+  N04936 CMOSP  
+ L=.18u  
+ W=.2u         
M_FLASH-64_FFD43_NAND1_M4         FLASH-64_FFD43_N00861 FLASH-64_N128837 N04936
+  N04936 CMOSP  
+ L=.18u  
+ W=.2u         
R_FLASH-64_FFD43_NAND1_R1         FLASH-64_FFD43_Y 0  10Meg  
R_FLASH-64_FFD43_NAND1_R2         FLASH-64_N128837 0  10Meg  
M_FLASH-64_FFD43_NAND3_M1         Q43 FLASH-64_FFD43_X
+  FLASH-64_FFD43_NAND3_N00209 FLASH-64_FFD43_NAND3_N00209 CMOSN  
+ L=.18u  
+ W=.18u         
M_FLASH-64_FFD43_NAND3_M2         FLASH-64_FFD43_NAND3_N00209 FLASH-64_N1284591
+  0 0 CMOSN  
+ L=.18u  
+ W=.18u         
M_FLASH-64_FFD43_NAND3_M3         Q43 FLASH-64_FFD43_X N04936 N04936 CMOSP  
+ L=.18u  
+ W=.2u         
M_FLASH-64_FFD43_NAND3_M4         Q43 FLASH-64_N1284591 N04936 N04936 CMOSP  
+ L=.18u  
+ W=.2u         
R_FLASH-64_FFD43_NAND3_R1         FLASH-64_FFD43_X 0  10Meg  
R_FLASH-64_FFD43_NAND3_R2         FLASH-64_N1284591 0  10Meg  
M_FLASH-64_FFD43_NAND2_M1         FLASH-64_FFD43_X FLASH-64_FFD43_N00589
+  FLASH-64_FFD43_NAND2_N00209 FLASH-64_FFD43_NAND2_N00209 CMOSN  
+ L=.18u  
+ W=.18u         
M_FLASH-64_FFD43_NAND2_M2         FLASH-64_FFD43_NAND2_N00209 N14250 0 0 CMOSN 
+  
+ L=.18u  
+ W=.18u         
M_FLASH-64_FFD43_NAND2_M3         FLASH-64_FFD43_X FLASH-64_FFD43_N00589 N04936
+  N04936 CMOSP  
+ L=.18u  
+ W=.2u         
M_FLASH-64_FFD43_NAND2_M4         FLASH-64_FFD43_X N14250 N04936 N04936 CMOSP  
+ L=.18u  
+ W=.2u         
R_FLASH-64_FFD43_NAND2_R1         FLASH-64_FFD43_N00589 0  10Meg  
R_FLASH-64_FFD43_NAND2_R2         N14250 0  10Meg  
M_FLASH-64_FFD43_NAND4_M1         FLASH-64_N1284591 Q43
+  FLASH-64_FFD43_NAND4_N00209 FLASH-64_FFD43_NAND4_N00209 CMOSN  
+ L=.18u  
+ W=.18u         
M_FLASH-64_FFD43_NAND4_M2         FLASH-64_FFD43_NAND4_N00209 FLASH-64_FFD43_Y
+  0 0 CMOSN  
+ L=.18u  
+ W=.18u         
M_FLASH-64_FFD43_NAND4_M3         FLASH-64_N1284591 Q43 N04936 N04936 CMOSP  
+ L=.18u  
+ W=.2u         
M_FLASH-64_FFD43_NAND4_M4         FLASH-64_N1284591 FLASH-64_FFD43_Y N04936
+  N04936 CMOSP  
+ L=.18u  
+ W=.2u         
R_FLASH-64_FFD43_NAND4_R1         Q43 0  10Meg  
R_FLASH-64_FFD43_NAND4_R2         FLASH-64_FFD43_Y 0  10Meg  
C_FLASH-64_FFD61_C3         0 FLASH-64_FFD61_Y  10p  
M_FLASH-64_FFD61_NAND_M1         FLASH-64_FFD61_N00589 FLASH-64_FFD61_N00861
+  FLASH-64_FFD61_NAND_N00209 FLASH-64_FFD61_NAND_N00209 CMOSN  
+ L=.18u  
+ W=.18u         
M_FLASH-64_FFD61_NAND_M2         FLASH-64_FFD61_NAND_N00209 FLASH-64_FFD61_X 0
+  0 CMOSN  
+ L=.18u  
+ W=.18u         
M_FLASH-64_FFD61_NAND_M3         FLASH-64_FFD61_N00589 FLASH-64_FFD61_N00861
+  N04936 N04936 CMOSP  
+ L=.18u  
+ W=.2u         
M_FLASH-64_FFD61_NAND_M4         FLASH-64_FFD61_N00589 FLASH-64_FFD61_X N04936
+  N04936 CMOSP  
+ L=.18u  
+ W=.2u         
R_FLASH-64_FFD61_NAND_R1         FLASH-64_FFD61_N00861 0  10Meg  
R_FLASH-64_FFD61_NAND_R2         FLASH-64_FFD61_X 0  10Meg  
M_FLASH-64_FFD61_NAND-3_M2         FLASH-64_FFD61_NAND-3_N05674 N14250
+  FLASH-64_FFD61_NAND-3_N05700 FLASH-64_FFD61_NAND-3_N05700 CMOSN  
+ L=.18u  
+ W=.18u         
M_FLASH-64_FFD61_NAND-3_M3         FLASH-64_FFD61_Y FLASH-64_FFD61_X N04936
+  N04936 CMOSP  
+ L=.18u  
+ W=.2u         
M_FLASH-64_FFD61_NAND-3_M5         FLASH-64_FFD61_Y FLASH-64_FFD61_N00861
+  N04936 N04936 CMOSP  
+ L=.18u  
+ W=.2u         
M_FLASH-64_FFD61_NAND-3_M4         FLASH-64_FFD61_Y N14250 N04936 N04936 CMOSP 
+  
+ L=.18u  
+ W=.2u         
M_FLASH-64_FFD61_NAND-3_M6         FLASH-64_FFD61_NAND-3_N05700
+  FLASH-64_FFD61_N00861 0 0 CMOSN  
+ L=.18u  
+ W=.18u         
M_FLASH-64_FFD61_NAND-3_M1         FLASH-64_FFD61_Y FLASH-64_FFD61_X
+  FLASH-64_FFD61_NAND-3_N05674 FLASH-64_FFD61_NAND-3_N05674 CMOSN  
+ L=.18u  
+ W=.18u         
M_FLASH-64_FFD61_NAND1_M1         FLASH-64_FFD61_N00861 FLASH-64_FFD61_Y
+  FLASH-64_FFD61_NAND1_N00209 FLASH-64_FFD61_NAND1_N00209 CMOSN  
+ L=.18u  
+ W=.18u         
M_FLASH-64_FFD61_NAND1_M2         FLASH-64_FFD61_NAND1_N00209 FLASH-64_N161575
+  0 0 CMOSN  
+ L=.18u  
+ W=.18u         
M_FLASH-64_FFD61_NAND1_M3         FLASH-64_FFD61_N00861 FLASH-64_FFD61_Y N04936
+  N04936 CMOSP  
+ L=.18u  
+ W=.2u         
M_FLASH-64_FFD61_NAND1_M4         FLASH-64_FFD61_N00861 FLASH-64_N161575 N04936
+  N04936 CMOSP  
+ L=.18u  
+ W=.2u         
R_FLASH-64_FFD61_NAND1_R1         FLASH-64_FFD61_Y 0  10Meg  
R_FLASH-64_FFD61_NAND1_R2         FLASH-64_N161575 0  10Meg  
M_FLASH-64_FFD61_NAND3_M1         Q61 FLASH-64_FFD61_X
+  FLASH-64_FFD61_NAND3_N00209 FLASH-64_FFD61_NAND3_N00209 CMOSN  
+ L=.18u  
+ W=.18u         
M_FLASH-64_FFD61_NAND3_M2         FLASH-64_FFD61_NAND3_N00209 FLASH-64_N1609111
+  0 0 CMOSN  
+ L=.18u  
+ W=.18u         
M_FLASH-64_FFD61_NAND3_M3         Q61 FLASH-64_FFD61_X N04936 N04936 CMOSP  
+ L=.18u  
+ W=.2u         
M_FLASH-64_FFD61_NAND3_M4         Q61 FLASH-64_N1609111 N04936 N04936 CMOSP  
+ L=.18u  
+ W=.2u         
R_FLASH-64_FFD61_NAND3_R1         FLASH-64_FFD61_X 0  10Meg  
R_FLASH-64_FFD61_NAND3_R2         FLASH-64_N1609111 0  10Meg  
M_FLASH-64_FFD61_NAND2_M1         FLASH-64_FFD61_X FLASH-64_FFD61_N00589
+  FLASH-64_FFD61_NAND2_N00209 FLASH-64_FFD61_NAND2_N00209 CMOSN  
+ L=.18u  
+ W=.18u         
M_FLASH-64_FFD61_NAND2_M2         FLASH-64_FFD61_NAND2_N00209 N14250 0 0 CMOSN 
+  
+ L=.18u  
+ W=.18u         
M_FLASH-64_FFD61_NAND2_M3         FLASH-64_FFD61_X FLASH-64_FFD61_N00589 N04936
+  N04936 CMOSP  
+ L=.18u  
+ W=.2u         
M_FLASH-64_FFD61_NAND2_M4         FLASH-64_FFD61_X N14250 N04936 N04936 CMOSP  
+ L=.18u  
+ W=.2u         
R_FLASH-64_FFD61_NAND2_R1         FLASH-64_FFD61_N00589 0  10Meg  
R_FLASH-64_FFD61_NAND2_R2         N14250 0  10Meg  
M_FLASH-64_FFD61_NAND4_M1         FLASH-64_N1609111 Q61
+  FLASH-64_FFD61_NAND4_N00209 FLASH-64_FFD61_NAND4_N00209 CMOSN  
+ L=.18u  
+ W=.18u         
M_FLASH-64_FFD61_NAND4_M2         FLASH-64_FFD61_NAND4_N00209 FLASH-64_FFD61_Y
+  0 0 CMOSN  
+ L=.18u  
+ W=.18u         
M_FLASH-64_FFD61_NAND4_M3         FLASH-64_N1609111 Q61 N04936 N04936 CMOSP  
+ L=.18u  
+ W=.2u         
M_FLASH-64_FFD61_NAND4_M4         FLASH-64_N1609111 FLASH-64_FFD61_Y N04936
+  N04936 CMOSP  
+ L=.18u  
+ W=.2u         
R_FLASH-64_FFD61_NAND4_R1         Q61 0  10Meg  
R_FLASH-64_FFD61_NAND4_R2         FLASH-64_FFD61_Y 0  10Meg  
M_FLASH-64_C49_M4         FLASH-64_C49_N26867 FLASH-64_C49_N27085 N04936 N04936
+  CMOSP  
+ L=.2u  
+ W=.6u         
M_FLASH-64_C49_M5         FLASH-64_C49_N27149 N16265 0 0 CMOSN  
+ L=.2u  
+ W=.6u         
M_FLASH-64_C49_M6         FLASH-64_N160609 FLASH-64_C49_N26867 N04936 N04936
+  CMOSP  
+ L=.2u  
+ W=.8u         
M_FLASH-64_C49_M7         FLASH-64_N160609 N16265 0 0 CMOSN  
+ L=.2u  
+ W=.4u         
M_FLASH-64_C49_M1         FLASH-64_C49_N27085 N17273 FLASH-64_C49_N27149 0
+  CMOSN  
+ L=.2u  
+ W=.4u         
M_FLASH-64_C49_M2         FLASH-64_C49_N26867 N02478 FLASH-64_C49_N27149 0
+  CMOSN  
+ L=.2u  
+ W=.4u         
M_FLASH-64_C49_M3         FLASH-64_C49_N27085 FLASH-64_C49_N27085 N04936 N04936
+  CMOSP  
+ L=.2u  
+ W=.6u         
M_FLASH-64_C8_M4         FLASH-64_C8_N26867 FLASH-64_C8_N27085 N04936 N04936
+  CMOSP  
+ L=.2u  
+ W=.6u         
M_FLASH-64_C8_M5         FLASH-64_C8_N27149 N16265 0 0 CMOSN  
+ L=.2u  
+ W=.6u         
M_FLASH-64_C8_M6         FLASH-64_N66223 FLASH-64_C8_N26867 N04936 N04936 CMOSP
+   
+ L=.2u  
+ W=.8u         
M_FLASH-64_C8_M7         FLASH-64_N66223 N16265 0 0 CMOSN  
+ L=.2u  
+ W=.4u         
M_FLASH-64_C8_M1         FLASH-64_C8_N27085 N17273 FLASH-64_C8_N27149 0 CMOSN  
+ L=.2u  
+ W=.4u         
M_FLASH-64_C8_M2         FLASH-64_C8_N26867 N01684 FLASH-64_C8_N27149 0 CMOSN  
+ L=.2u  
+ W=.4u         
M_FLASH-64_C8_M3         FLASH-64_C8_N27085 FLASH-64_C8_N27085 N04936 N04936
+  CMOSP  
+ L=.2u  
+ W=.6u         
C_FLASH-64_FFD15_C3         0 FLASH-64_FFD15_Y  10p  
M_FLASH-64_FFD15_NAND_M1         FLASH-64_FFD15_N00589 FLASH-64_FFD15_N00861
+  FLASH-64_FFD15_NAND_N00209 FLASH-64_FFD15_NAND_N00209 CMOSN  
+ L=.18u  
+ W=.18u         
M_FLASH-64_FFD15_NAND_M2         FLASH-64_FFD15_NAND_N00209 FLASH-64_FFD15_X 0
+  0 CMOSN  
+ L=.18u  
+ W=.18u         
M_FLASH-64_FFD15_NAND_M3         FLASH-64_FFD15_N00589 FLASH-64_FFD15_N00861
+  N04936 N04936 CMOSP  
+ L=.18u  
+ W=.2u         
M_FLASH-64_FFD15_NAND_M4         FLASH-64_FFD15_N00589 FLASH-64_FFD15_X N04936
+  N04936 CMOSP  
+ L=.18u  
+ W=.2u         
R_FLASH-64_FFD15_NAND_R1         FLASH-64_FFD15_N00861 0  10Meg  
R_FLASH-64_FFD15_NAND_R2         FLASH-64_FFD15_X 0  10Meg  
M_FLASH-64_FFD15_NAND-3_M2         FLASH-64_FFD15_NAND-3_N05674 N14250
+  FLASH-64_FFD15_NAND-3_N05700 FLASH-64_FFD15_NAND-3_N05700 CMOSN  
+ L=.18u  
+ W=.18u         
M_FLASH-64_FFD15_NAND-3_M3         FLASH-64_FFD15_Y FLASH-64_FFD15_X N04936
+  N04936 CMOSP  
+ L=.18u  
+ W=.2u         
M_FLASH-64_FFD15_NAND-3_M5         FLASH-64_FFD15_Y FLASH-64_FFD15_N00861
+  N04936 N04936 CMOSP  
+ L=.18u  
+ W=.2u         
M_FLASH-64_FFD15_NAND-3_M4         FLASH-64_FFD15_Y N14250 N04936 N04936 CMOSP 
+  
+ L=.18u  
+ W=.2u         
M_FLASH-64_FFD15_NAND-3_M6         FLASH-64_FFD15_NAND-3_N05700
+  FLASH-64_FFD15_N00861 0 0 CMOSN  
+ L=.18u  
+ W=.18u         
M_FLASH-64_FFD15_NAND-3_M1         FLASH-64_FFD15_Y FLASH-64_FFD15_X
+  FLASH-64_FFD15_NAND-3_N05674 FLASH-64_FFD15_NAND-3_N05674 CMOSN  
+ L=.18u  
+ W=.18u         
M_FLASH-64_FFD15_NAND1_M1         FLASH-64_FFD15_N00861 FLASH-64_FFD15_Y
+  FLASH-64_FFD15_NAND1_N00209 FLASH-64_FFD15_NAND1_N00209 CMOSN  
+ L=.18u  
+ W=.18u         
M_FLASH-64_FFD15_NAND1_M2         FLASH-64_FFD15_NAND1_N00209 FLASH-64_N68740 0
+  0 CMOSN  
+ L=.18u  
+ W=.18u         
M_FLASH-64_FFD15_NAND1_M3         FLASH-64_FFD15_N00861 FLASH-64_FFD15_Y N04936
+  N04936 CMOSP  
+ L=.18u  
+ W=.2u         
M_FLASH-64_FFD15_NAND1_M4         FLASH-64_FFD15_N00861 FLASH-64_N68740 N04936
+  N04936 CMOSP  
+ L=.18u  
+ W=.2u         
R_FLASH-64_FFD15_NAND1_R1         FLASH-64_FFD15_Y 0  10Meg  
R_FLASH-64_FFD15_NAND1_R2         FLASH-64_N68740 0  10Meg  
M_FLASH-64_FFD15_NAND3_M1         Q15 FLASH-64_FFD15_X
+  FLASH-64_FFD15_NAND3_N00209 FLASH-64_FFD15_NAND3_N00209 CMOSN  
+ L=.18u  
+ W=.18u         
M_FLASH-64_FFD15_NAND3_M2         FLASH-64_FFD15_NAND3_N00209 FLASH-64_N687080
+  0 0 CMOSN  
+ L=.18u  
+ W=.18u         
M_FLASH-64_FFD15_NAND3_M3         Q15 FLASH-64_FFD15_X N04936 N04936 CMOSP  
+ L=.18u  
+ W=.2u         
M_FLASH-64_FFD15_NAND3_M4         Q15 FLASH-64_N687080 N04936 N04936 CMOSP  
+ L=.18u  
+ W=.2u         
R_FLASH-64_FFD15_NAND3_R1         FLASH-64_FFD15_X 0  10Meg  
R_FLASH-64_FFD15_NAND3_R2         FLASH-64_N687080 0  10Meg  
M_FLASH-64_FFD15_NAND2_M1         FLASH-64_FFD15_X FLASH-64_FFD15_N00589
+  FLASH-64_FFD15_NAND2_N00209 FLASH-64_FFD15_NAND2_N00209 CMOSN  
+ L=.18u  
+ W=.18u         
M_FLASH-64_FFD15_NAND2_M2         FLASH-64_FFD15_NAND2_N00209 N14250 0 0 CMOSN 
+  
+ L=.18u  
+ W=.18u         
M_FLASH-64_FFD15_NAND2_M3         FLASH-64_FFD15_X FLASH-64_FFD15_N00589 N04936
+  N04936 CMOSP  
+ L=.18u  
+ W=.2u         
M_FLASH-64_FFD15_NAND2_M4         FLASH-64_FFD15_X N14250 N04936 N04936 CMOSP  
+ L=.18u  
+ W=.2u         
R_FLASH-64_FFD15_NAND2_R1         FLASH-64_FFD15_N00589 0  10Meg  
R_FLASH-64_FFD15_NAND2_R2         N14250 0  10Meg  
M_FLASH-64_FFD15_NAND4_M1         FLASH-64_N687080 Q15
+  FLASH-64_FFD15_NAND4_N00209 FLASH-64_FFD15_NAND4_N00209 CMOSN  
+ L=.18u  
+ W=.18u         
M_FLASH-64_FFD15_NAND4_M2         FLASH-64_FFD15_NAND4_N00209 FLASH-64_FFD15_Y
+  0 0 CMOSN  
+ L=.18u  
+ W=.18u         
M_FLASH-64_FFD15_NAND4_M3         FLASH-64_N687080 Q15 N04936 N04936 CMOSP  
+ L=.18u  
+ W=.2u         
M_FLASH-64_FFD15_NAND4_M4         FLASH-64_N687080 FLASH-64_FFD15_Y N04936
+  N04936 CMOSP  
+ L=.18u  
+ W=.2u         
R_FLASH-64_FFD15_NAND4_R1         Q15 0  10Meg  
R_FLASH-64_FFD15_NAND4_R2         FLASH-64_FFD15_Y 0  10Meg  
R_FLASH-64_R2         FLASH-64_N658171 0  1Meg  
M_FLASH-64_C11_M4         FLASH-64_C11_N26867 FLASH-64_C11_N27085 N04936 N04936
+  CMOSP  
+ L=.2u  
+ W=.6u         
M_FLASH-64_C11_M5         FLASH-64_C11_N27149 N16265 0 0 CMOSN  
+ L=.2u  
+ W=.6u         
M_FLASH-64_C11_M6         FLASH-64_N68752 FLASH-64_C11_N26867 N04936 N04936
+  CMOSP  
+ L=.2u  
+ W=.8u         
M_FLASH-64_C11_M7         FLASH-64_N68752 N16265 0 0 CMOSN  
+ L=.2u  
+ W=.4u         
M_FLASH-64_C11_M1         FLASH-64_C11_N27085 N17273 FLASH-64_C11_N27149 0
+  CMOSN  
+ L=.2u  
+ W=.4u         
M_FLASH-64_C11_M2         FLASH-64_C11_N26867 N01670 FLASH-64_C11_N27149 0
+  CMOSN  
+ L=.2u  
+ W=.4u         
M_FLASH-64_C11_M3         FLASH-64_C11_N27085 FLASH-64_C11_N27085 N04936 N04936
+  CMOSP  
+ L=.2u  
+ W=.6u         
C_FLASH-64_FFD34_C3         0 FLASH-64_FFD34_Y  10p  
M_FLASH-64_FFD34_NAND_M1         FLASH-64_FFD34_N00589 FLASH-64_FFD34_N00861
+  FLASH-64_FFD34_NAND_N00209 FLASH-64_FFD34_NAND_N00209 CMOSN  
+ L=.18u  
+ W=.18u         
M_FLASH-64_FFD34_NAND_M2         FLASH-64_FFD34_NAND_N00209 FLASH-64_FFD34_X 0
+  0 CMOSN  
+ L=.18u  
+ W=.18u         
M_FLASH-64_FFD34_NAND_M3         FLASH-64_FFD34_N00589 FLASH-64_FFD34_N00861
+  N04936 N04936 CMOSP  
+ L=.18u  
+ W=.2u         
M_FLASH-64_FFD34_NAND_M4         FLASH-64_FFD34_N00589 FLASH-64_FFD34_X N04936
+  N04936 CMOSP  
+ L=.18u  
+ W=.2u         
R_FLASH-64_FFD34_NAND_R1         FLASH-64_FFD34_N00861 0  10Meg  
R_FLASH-64_FFD34_NAND_R2         FLASH-64_FFD34_X 0  10Meg  
M_FLASH-64_FFD34_NAND-3_M2         FLASH-64_FFD34_NAND-3_N05674 N14250
+  FLASH-64_FFD34_NAND-3_N05700 FLASH-64_FFD34_NAND-3_N05700 CMOSN  
+ L=.18u  
+ W=.18u         
M_FLASH-64_FFD34_NAND-3_M3         FLASH-64_FFD34_Y FLASH-64_FFD34_X N04936
+  N04936 CMOSP  
+ L=.18u  
+ W=.2u         
M_FLASH-64_FFD34_NAND-3_M5         FLASH-64_FFD34_Y FLASH-64_FFD34_N00861
+  N04936 N04936 CMOSP  
+ L=.18u  
+ W=.2u         
M_FLASH-64_FFD34_NAND-3_M4         FLASH-64_FFD34_Y N14250 N04936 N04936 CMOSP 
+  
+ L=.18u  
+ W=.2u         
M_FLASH-64_FFD34_NAND-3_M6         FLASH-64_FFD34_NAND-3_N05700
+  FLASH-64_FFD34_N00861 0 0 CMOSN  
+ L=.18u  
+ W=.18u         
M_FLASH-64_FFD34_NAND-3_M1         FLASH-64_FFD34_Y FLASH-64_FFD34_X
+  FLASH-64_FFD34_NAND-3_N05674 FLASH-64_FFD34_NAND-3_N05674 CMOSN  
+ L=.18u  
+ W=.18u         
M_FLASH-64_FFD34_NAND1_M1         FLASH-64_FFD34_N00861 FLASH-64_FFD34_Y
+  FLASH-64_FFD34_NAND1_N00209 FLASH-64_FFD34_NAND1_N00209 CMOSN  
+ L=.18u  
+ W=.18u         
M_FLASH-64_FFD34_NAND1_M2         FLASH-64_FFD34_NAND1_N00209 FLASH-64_N127907
+  0 0 CMOSN  
+ L=.18u  
+ W=.18u         
M_FLASH-64_FFD34_NAND1_M3         FLASH-64_FFD34_N00861 FLASH-64_FFD34_Y N04936
+  N04936 CMOSP  
+ L=.18u  
+ W=.2u         
M_FLASH-64_FFD34_NAND1_M4         FLASH-64_FFD34_N00861 FLASH-64_N127907 N04936
+  N04936 CMOSP  
+ L=.18u  
+ W=.2u         
R_FLASH-64_FFD34_NAND1_R1         FLASH-64_FFD34_Y 0  10Meg  
R_FLASH-64_FFD34_NAND1_R2         FLASH-64_N127907 0  10Meg  
M_FLASH-64_FFD34_NAND3_M1         Q34 FLASH-64_FFD34_X
+  FLASH-64_FFD34_NAND3_N00209 FLASH-64_FFD34_NAND3_N00209 CMOSN  
+ L=.18u  
+ W=.18u         
M_FLASH-64_FFD34_NAND3_M2         FLASH-64_FFD34_NAND3_N00209 -Q34 0 0 CMOSN  
+ L=.18u  
+ W=.18u         
M_FLASH-64_FFD34_NAND3_M3         Q34 FLASH-64_FFD34_X N04936 N04936 CMOSP  
+ L=.18u  
+ W=.2u         
M_FLASH-64_FFD34_NAND3_M4         Q34 -Q34 N04936 N04936 CMOSP  
+ L=.18u  
+ W=.2u         
R_FLASH-64_FFD34_NAND3_R1         FLASH-64_FFD34_X 0  10Meg  
R_FLASH-64_FFD34_NAND3_R2         -Q34 0  10Meg  
M_FLASH-64_FFD34_NAND2_M1         FLASH-64_FFD34_X FLASH-64_FFD34_N00589
+  FLASH-64_FFD34_NAND2_N00209 FLASH-64_FFD34_NAND2_N00209 CMOSN  
+ L=.18u  
+ W=.18u         
M_FLASH-64_FFD34_NAND2_M2         FLASH-64_FFD34_NAND2_N00209 N14250 0 0 CMOSN 
+  
+ L=.18u  
+ W=.18u         
M_FLASH-64_FFD34_NAND2_M3         FLASH-64_FFD34_X FLASH-64_FFD34_N00589 N04936
+  N04936 CMOSP  
+ L=.18u  
+ W=.2u         
M_FLASH-64_FFD34_NAND2_M4         FLASH-64_FFD34_X N14250 N04936 N04936 CMOSP  
+ L=.18u  
+ W=.2u         
R_FLASH-64_FFD34_NAND2_R1         FLASH-64_FFD34_N00589 0  10Meg  
R_FLASH-64_FFD34_NAND2_R2         N14250 0  10Meg  
M_FLASH-64_FFD34_NAND4_M1         -Q34 Q34 FLASH-64_FFD34_NAND4_N00209
+  FLASH-64_FFD34_NAND4_N00209 CMOSN  
+ L=.18u  
+ W=.18u         
M_FLASH-64_FFD34_NAND4_M2         FLASH-64_FFD34_NAND4_N00209 FLASH-64_FFD34_Y
+  0 0 CMOSN  
+ L=.18u  
+ W=.18u         
M_FLASH-64_FFD34_NAND4_M3         -Q34 Q34 N04936 N04936 CMOSP  
+ L=.18u  
+ W=.2u         
M_FLASH-64_FFD34_NAND4_M4         -Q34 FLASH-64_FFD34_Y N04936 N04936 CMOSP  
+ L=.18u  
+ W=.2u         
R_FLASH-64_FFD34_NAND4_R1         Q34 0  10Meg  
R_FLASH-64_FFD34_NAND4_R2         FLASH-64_FFD34_Y 0  10Meg  
C_FLASH-64_FFD27_C3         0 FLASH-64_FFD27_Y  10p  
M_FLASH-64_FFD27_NAND_M1         FLASH-64_FFD27_N00589 FLASH-64_FFD27_N00861
+  FLASH-64_FFD27_NAND_N00209 FLASH-64_FFD27_NAND_N00209 CMOSN  
+ L=.18u  
+ W=.18u         
M_FLASH-64_FFD27_NAND_M2         FLASH-64_FFD27_NAND_N00209 FLASH-64_FFD27_X 0
+  0 CMOSN  
+ L=.18u  
+ W=.18u         
M_FLASH-64_FFD27_NAND_M3         FLASH-64_FFD27_N00589 FLASH-64_FFD27_N00861
+  N04936 N04936 CMOSP  
+ L=.18u  
+ W=.2u         
M_FLASH-64_FFD27_NAND_M4         FLASH-64_FFD27_N00589 FLASH-64_FFD27_X N04936
+  N04936 CMOSP  
+ L=.18u  
+ W=.2u         
R_FLASH-64_FFD27_NAND_R1         FLASH-64_FFD27_N00861 0  10Meg  
R_FLASH-64_FFD27_NAND_R2         FLASH-64_FFD27_X 0  10Meg  
M_FLASH-64_FFD27_NAND-3_M2         FLASH-64_FFD27_NAND-3_N05674 N14250
+  FLASH-64_FFD27_NAND-3_N05700 FLASH-64_FFD27_NAND-3_N05700 CMOSN  
+ L=.18u  
+ W=.18u         
M_FLASH-64_FFD27_NAND-3_M3         FLASH-64_FFD27_Y FLASH-64_FFD27_X N04936
+  N04936 CMOSP  
+ L=.18u  
+ W=.2u         
M_FLASH-64_FFD27_NAND-3_M5         FLASH-64_FFD27_Y FLASH-64_FFD27_N00861
+  N04936 N04936 CMOSP  
+ L=.18u  
+ W=.2u         
M_FLASH-64_FFD27_NAND-3_M4         FLASH-64_FFD27_Y N14250 N04936 N04936 CMOSP 
+  
+ L=.18u  
+ W=.2u         
M_FLASH-64_FFD27_NAND-3_M6         FLASH-64_FFD27_NAND-3_N05700
+  FLASH-64_FFD27_N00861 0 0 CMOSN  
+ L=.18u  
+ W=.18u         
M_FLASH-64_FFD27_NAND-3_M1         FLASH-64_FFD27_Y FLASH-64_FFD27_X
+  FLASH-64_FFD27_NAND-3_N05674 FLASH-64_FFD27_NAND-3_N05674 CMOSN  
+ L=.18u  
+ W=.18u         
M_FLASH-64_FFD27_NAND1_M1         FLASH-64_FFD27_N00861 FLASH-64_FFD27_Y
+  FLASH-64_FFD27_NAND1_N00209 FLASH-64_FFD27_NAND1_N00209 CMOSN  
+ L=.18u  
+ W=.18u         
M_FLASH-64_FFD27_NAND1_M2         FLASH-64_FFD27_NAND1_N00209 FLASH-64_N106675
+  0 0 CMOSN  
+ L=.18u  
+ W=.18u         
M_FLASH-64_FFD27_NAND1_M3         FLASH-64_FFD27_N00861 FLASH-64_FFD27_Y N04936
+  N04936 CMOSP  
+ L=.18u  
+ W=.2u         
M_FLASH-64_FFD27_NAND1_M4         FLASH-64_FFD27_N00861 FLASH-64_N106675 N04936
+  N04936 CMOSP  
+ L=.18u  
+ W=.2u         
R_FLASH-64_FFD27_NAND1_R1         FLASH-64_FFD27_Y 0  10Meg  
R_FLASH-64_FFD27_NAND1_R2         FLASH-64_N106675 0  10Meg  
M_FLASH-64_FFD27_NAND3_M1         Q27 FLASH-64_FFD27_X
+  FLASH-64_FFD27_NAND3_N00209 FLASH-64_FFD27_NAND3_N00209 CMOSN  
+ L=.18u  
+ W=.18u         
M_FLASH-64_FFD27_NAND3_M2         FLASH-64_FFD27_NAND3_N00209 FLASH-64_N1062971
+  0 0 CMOSN  
+ L=.18u  
+ W=.18u         
M_FLASH-64_FFD27_NAND3_M3         Q27 FLASH-64_FFD27_X N04936 N04936 CMOSP  
+ L=.18u  
+ W=.2u         
M_FLASH-64_FFD27_NAND3_M4         Q27 FLASH-64_N1062971 N04936 N04936 CMOSP  
+ L=.18u  
+ W=.2u         
R_FLASH-64_FFD27_NAND3_R1         FLASH-64_FFD27_X 0  10Meg  
R_FLASH-64_FFD27_NAND3_R2         FLASH-64_N1062971 0  10Meg  
M_FLASH-64_FFD27_NAND2_M1         FLASH-64_FFD27_X FLASH-64_FFD27_N00589
+  FLASH-64_FFD27_NAND2_N00209 FLASH-64_FFD27_NAND2_N00209 CMOSN  
+ L=.18u  
+ W=.18u         
M_FLASH-64_FFD27_NAND2_M2         FLASH-64_FFD27_NAND2_N00209 N14250 0 0 CMOSN 
+  
+ L=.18u  
+ W=.18u         
M_FLASH-64_FFD27_NAND2_M3         FLASH-64_FFD27_X FLASH-64_FFD27_N00589 N04936
+  N04936 CMOSP  
+ L=.18u  
+ W=.2u         
M_FLASH-64_FFD27_NAND2_M4         FLASH-64_FFD27_X N14250 N04936 N04936 CMOSP  
+ L=.18u  
+ W=.2u         
R_FLASH-64_FFD27_NAND2_R1         FLASH-64_FFD27_N00589 0  10Meg  
R_FLASH-64_FFD27_NAND2_R2         N14250 0  10Meg  
M_FLASH-64_FFD27_NAND4_M1         FLASH-64_N1062971 Q27
+  FLASH-64_FFD27_NAND4_N00209 FLASH-64_FFD27_NAND4_N00209 CMOSN  
+ L=.18u  
+ W=.18u         
M_FLASH-64_FFD27_NAND4_M2         FLASH-64_FFD27_NAND4_N00209 FLASH-64_FFD27_Y
+  0 0 CMOSN  
+ L=.18u  
+ W=.18u         
M_FLASH-64_FFD27_NAND4_M3         FLASH-64_N1062971 Q27 N04936 N04936 CMOSP  
+ L=.18u  
+ W=.2u         
M_FLASH-64_FFD27_NAND4_M4         FLASH-64_N1062971 FLASH-64_FFD27_Y N04936
+  N04936 CMOSP  
+ L=.18u  
+ W=.2u         
R_FLASH-64_FFD27_NAND4_R1         Q27 0  10Meg  
R_FLASH-64_FFD27_NAND4_R2         FLASH-64_FFD27_Y 0  10Meg  
C_FLASH-64_FFD52_C3         0 FLASH-64_FFD52_Y  10p  
M_FLASH-64_FFD52_NAND_M1         FLASH-64_FFD52_N00589 FLASH-64_FFD52_N00861
+  FLASH-64_FFD52_NAND_N00209 FLASH-64_FFD52_NAND_N00209 CMOSN  
+ L=.18u  
+ W=.18u         
M_FLASH-64_FFD52_NAND_M2         FLASH-64_FFD52_NAND_N00209 FLASH-64_FFD52_X 0
+  0 CMOSN  
+ L=.18u  
+ W=.18u         
M_FLASH-64_FFD52_NAND_M3         FLASH-64_FFD52_N00589 FLASH-64_FFD52_N00861
+  N04936 N04936 CMOSP  
+ L=.18u  
+ W=.2u         
M_FLASH-64_FFD52_NAND_M4         FLASH-64_FFD52_N00589 FLASH-64_FFD52_X N04936
+  N04936 CMOSP  
+ L=.18u  
+ W=.2u         
R_FLASH-64_FFD52_NAND_R1         FLASH-64_FFD52_N00861 0  10Meg  
R_FLASH-64_FFD52_NAND_R2         FLASH-64_FFD52_X 0  10Meg  
M_FLASH-64_FFD52_NAND-3_M2         FLASH-64_FFD52_NAND-3_N05674 N14250
+  FLASH-64_FFD52_NAND-3_N05700 FLASH-64_FFD52_NAND-3_N05700 CMOSN  
+ L=.18u  
+ W=.18u         
M_FLASH-64_FFD52_NAND-3_M3         FLASH-64_FFD52_Y FLASH-64_FFD52_X N04936
+  N04936 CMOSP  
+ L=.18u  
+ W=.2u         
M_FLASH-64_FFD52_NAND-3_M5         FLASH-64_FFD52_Y FLASH-64_FFD52_N00861
+  N04936 N04936 CMOSP  
+ L=.18u  
+ W=.2u         
M_FLASH-64_FFD52_NAND-3_M4         FLASH-64_FFD52_Y N14250 N04936 N04936 CMOSP 
+  
+ L=.18u  
+ W=.2u         
M_FLASH-64_FFD52_NAND-3_M6         FLASH-64_FFD52_NAND-3_N05700
+  FLASH-64_FFD52_N00861 0 0 CMOSN  
+ L=.18u  
+ W=.18u         
M_FLASH-64_FFD52_NAND-3_M1         FLASH-64_FFD52_Y FLASH-64_FFD52_X
+  FLASH-64_FFD52_NAND-3_N05674 FLASH-64_FFD52_NAND-3_N05674 CMOSN  
+ L=.18u  
+ W=.18u         
M_FLASH-64_FFD52_NAND1_M1         FLASH-64_FFD52_N00861 FLASH-64_FFD52_Y
+  FLASH-64_FFD52_NAND1_N00209 FLASH-64_FFD52_NAND1_N00209 CMOSN  
+ L=.18u  
+ W=.18u         
M_FLASH-64_FFD52_NAND1_M2         FLASH-64_FFD52_NAND1_N00209 FLASH-64_N160603
+  0 0 CMOSN  
+ L=.18u  
+ W=.18u         
M_FLASH-64_FFD52_NAND1_M3         FLASH-64_FFD52_N00861 FLASH-64_FFD52_Y N04936
+  N04936 CMOSP  
+ L=.18u  
+ W=.2u         
M_FLASH-64_FFD52_NAND1_M4         FLASH-64_FFD52_N00861 FLASH-64_N160603 N04936
+  N04936 CMOSP  
+ L=.18u  
+ W=.2u         
R_FLASH-64_FFD52_NAND1_R1         FLASH-64_FFD52_Y 0  10Meg  
R_FLASH-64_FFD52_NAND1_R2         FLASH-64_N160603 0  10Meg  
M_FLASH-64_FFD52_NAND3_M1         Q52 FLASH-64_FFD52_X
+  FLASH-64_FFD52_NAND3_N00209 FLASH-64_FFD52_NAND3_N00209 CMOSN  
+ L=.18u  
+ W=.18u         
M_FLASH-64_FFD52_NAND3_M2         FLASH-64_FFD52_NAND3_N00209 -Q52 0 0 CMOSN  
+ L=.18u  
+ W=.18u         
M_FLASH-64_FFD52_NAND3_M3         Q52 FLASH-64_FFD52_X N04936 N04936 CMOSP  
+ L=.18u  
+ W=.2u         
M_FLASH-64_FFD52_NAND3_M4         Q52 -Q52 N04936 N04936 CMOSP  
+ L=.18u  
+ W=.2u         
R_FLASH-64_FFD52_NAND3_R1         FLASH-64_FFD52_X 0  10Meg  
R_FLASH-64_FFD52_NAND3_R2         -Q52 0  10Meg  
M_FLASH-64_FFD52_NAND2_M1         FLASH-64_FFD52_X FLASH-64_FFD52_N00589
+  FLASH-64_FFD52_NAND2_N00209 FLASH-64_FFD52_NAND2_N00209 CMOSN  
+ L=.18u  
+ W=.18u         
M_FLASH-64_FFD52_NAND2_M2         FLASH-64_FFD52_NAND2_N00209 N14250 0 0 CMOSN 
+  
+ L=.18u  
+ W=.18u         
M_FLASH-64_FFD52_NAND2_M3         FLASH-64_FFD52_X FLASH-64_FFD52_N00589 N04936
+  N04936 CMOSP  
+ L=.18u  
+ W=.2u         
M_FLASH-64_FFD52_NAND2_M4         FLASH-64_FFD52_X N14250 N04936 N04936 CMOSP  
+ L=.18u  
+ W=.2u         
R_FLASH-64_FFD52_NAND2_R1         FLASH-64_FFD52_N00589 0  10Meg  
R_FLASH-64_FFD52_NAND2_R2         N14250 0  10Meg  
M_FLASH-64_FFD52_NAND4_M1         -Q52 Q52 FLASH-64_FFD52_NAND4_N00209
+  FLASH-64_FFD52_NAND4_N00209 CMOSN  
+ L=.18u  
+ W=.18u         
M_FLASH-64_FFD52_NAND4_M2         FLASH-64_FFD52_NAND4_N00209 FLASH-64_FFD52_Y
+  0 0 CMOSN  
+ L=.18u  
+ W=.18u         
M_FLASH-64_FFD52_NAND4_M3         -Q52 Q52 N04936 N04936 CMOSP  
+ L=.18u  
+ W=.2u         
M_FLASH-64_FFD52_NAND4_M4         -Q52 FLASH-64_FFD52_Y N04936 N04936 CMOSP  
+ L=.18u  
+ W=.2u         
R_FLASH-64_FFD52_NAND4_R1         Q52 0  10Meg  
R_FLASH-64_FFD52_NAND4_R2         FLASH-64_FFD52_Y 0  10Meg  
M_FLASH-64_C41_M4         FLASH-64_C41_N26867 FLASH-64_C41_N27085 N04936 N04936
+  CMOSP  
+ L=.2u  
+ W=.6u         
M_FLASH-64_C41_M5         FLASH-64_C41_N27149 N16265 0 0 CMOSN  
+ L=.2u  
+ W=.6u         
M_FLASH-64_C41_M6         FLASH-64_N129047 FLASH-64_C41_N26867 N04936 N04936
+  CMOSP  
+ L=.2u  
+ W=.8u         
M_FLASH-64_C41_M7         FLASH-64_N129047 N16265 0 0 CMOSN  
+ L=.2u  
+ W=.4u         
M_FLASH-64_C41_M1         FLASH-64_C41_N27085 N17273 FLASH-64_C41_N27149 0
+  CMOSN  
+ L=.2u  
+ W=.4u         
M_FLASH-64_C41_M2         FLASH-64_C41_N26867 N02494 FLASH-64_C41_N27149 0
+  CMOSN  
+ L=.2u  
+ W=.4u         
M_FLASH-64_C41_M3         FLASH-64_C41_N27085 FLASH-64_C41_N27085 N04936 N04936
+  CMOSP  
+ L=.2u  
+ W=.6u         
R_FLASH-64_R18         FLASH-64_N1275231 0  1Meg  
R_FLASH-64_R27         FLASH-64_N1600611 0  1Meg  
C_FLASH-64_FFD18_C3         0 FLASH-64_FFD18_Y  10p  
M_FLASH-64_FFD18_NAND_M1         FLASH-64_FFD18_N00589 FLASH-64_FFD18_N00861
+  FLASH-64_FFD18_NAND_N00209 FLASH-64_FFD18_NAND_N00209 CMOSN  
+ L=.18u  
+ W=.18u         
M_FLASH-64_FFD18_NAND_M2         FLASH-64_FFD18_NAND_N00209 FLASH-64_FFD18_X 0
+  0 CMOSN  
+ L=.18u  
+ W=.18u         
M_FLASH-64_FFD18_NAND_M3         FLASH-64_FFD18_N00589 FLASH-64_FFD18_N00861
+  N04936 N04936 CMOSP  
+ L=.18u  
+ W=.2u         
M_FLASH-64_FFD18_NAND_M4         FLASH-64_FFD18_N00589 FLASH-64_FFD18_X N04936
+  N04936 CMOSP  
+ L=.18u  
+ W=.2u         
R_FLASH-64_FFD18_NAND_R1         FLASH-64_FFD18_N00861 0  10Meg  
R_FLASH-64_FFD18_NAND_R2         FLASH-64_FFD18_X 0  10Meg  
M_FLASH-64_FFD18_NAND-3_M2         FLASH-64_FFD18_NAND-3_N05674 N14250
+  FLASH-64_FFD18_NAND-3_N05700 FLASH-64_FFD18_NAND-3_N05700 CMOSN  
+ L=.18u  
+ W=.18u         
M_FLASH-64_FFD18_NAND-3_M3         FLASH-64_FFD18_Y FLASH-64_FFD18_X N04936
+  N04936 CMOSP  
+ L=.18u  
+ W=.2u         
M_FLASH-64_FFD18_NAND-3_M5         FLASH-64_FFD18_Y FLASH-64_FFD18_N00861
+  N04936 N04936 CMOSP  
+ L=.18u  
+ W=.2u         
M_FLASH-64_FFD18_NAND-3_M4         FLASH-64_FFD18_Y N14250 N04936 N04936 CMOSP 
+  
+ L=.18u  
+ W=.2u         
M_FLASH-64_FFD18_NAND-3_M6         FLASH-64_FFD18_NAND-3_N05700
+  FLASH-64_FFD18_N00861 0 0 CMOSN  
+ L=.18u  
+ W=.18u         
M_FLASH-64_FFD18_NAND-3_M1         FLASH-64_FFD18_Y FLASH-64_FFD18_X
+  FLASH-64_FFD18_NAND-3_N05674 FLASH-64_FFD18_NAND-3_N05674 CMOSN  
+ L=.18u  
+ W=.18u         
M_FLASH-64_FFD18_NAND1_M1         FLASH-64_FFD18_N00861 FLASH-64_FFD18_Y
+  FLASH-64_FFD18_NAND1_N00209 FLASH-64_FFD18_NAND1_N00209 CMOSN  
+ L=.18u  
+ W=.18u         
M_FLASH-64_FFD18_NAND1_M2         FLASH-64_FFD18_NAND1_N00209 FLASH-64_N105745
+  0 0 CMOSN  
+ L=.18u  
+ W=.18u         
M_FLASH-64_FFD18_NAND1_M3         FLASH-64_FFD18_N00861 FLASH-64_FFD18_Y N04936
+  N04936 CMOSP  
+ L=.18u  
+ W=.2u         
M_FLASH-64_FFD18_NAND1_M4         FLASH-64_FFD18_N00861 FLASH-64_N105745 N04936
+  N04936 CMOSP  
+ L=.18u  
+ W=.2u         
R_FLASH-64_FFD18_NAND1_R1         FLASH-64_FFD18_Y 0  10Meg  
R_FLASH-64_FFD18_NAND1_R2         FLASH-64_N105745 0  10Meg  
M_FLASH-64_FFD18_NAND3_M1         Q18 FLASH-64_FFD18_X
+  FLASH-64_FFD18_NAND3_N00209 FLASH-64_FFD18_NAND3_N00209 CMOSN  
+ L=.18u  
+ W=.18u         
M_FLASH-64_FFD18_NAND3_M2         FLASH-64_FFD18_NAND3_N00209 -Q18 0 0 CMOSN  
+ L=.18u  
+ W=.18u         
M_FLASH-64_FFD18_NAND3_M3         Q18 FLASH-64_FFD18_X N04936 N04936 CMOSP  
+ L=.18u  
+ W=.2u         
M_FLASH-64_FFD18_NAND3_M4         Q18 -Q18 N04936 N04936 CMOSP  
+ L=.18u  
+ W=.2u         
R_FLASH-64_FFD18_NAND3_R1         FLASH-64_FFD18_X 0  10Meg  
R_FLASH-64_FFD18_NAND3_R2         -Q18 0  10Meg  
M_FLASH-64_FFD18_NAND2_M1         FLASH-64_FFD18_X FLASH-64_FFD18_N00589
+  FLASH-64_FFD18_NAND2_N00209 FLASH-64_FFD18_NAND2_N00209 CMOSN  
+ L=.18u  
+ W=.18u         
M_FLASH-64_FFD18_NAND2_M2         FLASH-64_FFD18_NAND2_N00209 N14250 0 0 CMOSN 
+  
+ L=.18u  
+ W=.18u         
M_FLASH-64_FFD18_NAND2_M3         FLASH-64_FFD18_X FLASH-64_FFD18_N00589 N04936
+  N04936 CMOSP  
+ L=.18u  
+ W=.2u         
M_FLASH-64_FFD18_NAND2_M4         FLASH-64_FFD18_X N14250 N04936 N04936 CMOSP  
+ L=.18u  
+ W=.2u         
R_FLASH-64_FFD18_NAND2_R1         FLASH-64_FFD18_N00589 0  10Meg  
R_FLASH-64_FFD18_NAND2_R2         N14250 0  10Meg  
M_FLASH-64_FFD18_NAND4_M1         -Q18 Q18 FLASH-64_FFD18_NAND4_N00209
+  FLASH-64_FFD18_NAND4_N00209 CMOSN  
+ L=.18u  
+ W=.18u         
M_FLASH-64_FFD18_NAND4_M2         FLASH-64_FFD18_NAND4_N00209 FLASH-64_FFD18_Y
+  0 0 CMOSN  
+ L=.18u  
+ W=.18u         
M_FLASH-64_FFD18_NAND4_M3         -Q18 Q18 N04936 N04936 CMOSP  
+ L=.18u  
+ W=.2u         
M_FLASH-64_FFD18_NAND4_M4         -Q18 FLASH-64_FFD18_Y N04936 N04936 CMOSP  
+ L=.18u  
+ W=.2u         
R_FLASH-64_FFD18_NAND4_R1         Q18 0  10Meg  
R_FLASH-64_FFD18_NAND4_R2         FLASH-64_FFD18_Y 0  10Meg  
C_FLASH-64_FFD44_C3         0 FLASH-64_FFD44_Y  10p  
M_FLASH-64_FFD44_NAND_M1         FLASH-64_FFD44_N00589 FLASH-64_FFD44_N00861
+  FLASH-64_FFD44_NAND_N00209 FLASH-64_FFD44_NAND_N00209 CMOSN  
+ L=.18u  
+ W=.18u         
M_FLASH-64_FFD44_NAND_M2         FLASH-64_FFD44_NAND_N00209 FLASH-64_FFD44_X 0
+  0 CMOSN  
+ L=.18u  
+ W=.18u         
M_FLASH-64_FFD44_NAND_M3         FLASH-64_FFD44_N00589 FLASH-64_FFD44_N00861
+  N04936 N04936 CMOSP  
+ L=.18u  
+ W=.2u         
M_FLASH-64_FFD44_NAND_M4         FLASH-64_FFD44_N00589 FLASH-64_FFD44_X N04936
+  N04936 CMOSP  
+ L=.18u  
+ W=.2u         
R_FLASH-64_FFD44_NAND_R1         FLASH-64_FFD44_N00861 0  10Meg  
R_FLASH-64_FFD44_NAND_R2         FLASH-64_FFD44_X 0  10Meg  
M_FLASH-64_FFD44_NAND-3_M2         FLASH-64_FFD44_NAND-3_N05674 N14250
+  FLASH-64_FFD44_NAND-3_N05700 FLASH-64_FFD44_NAND-3_N05700 CMOSN  
+ L=.18u  
+ W=.18u         
M_FLASH-64_FFD44_NAND-3_M3         FLASH-64_FFD44_Y FLASH-64_FFD44_X N04936
+  N04936 CMOSP  
+ L=.18u  
+ W=.2u         
M_FLASH-64_FFD44_NAND-3_M5         FLASH-64_FFD44_Y FLASH-64_FFD44_N00861
+  N04936 N04936 CMOSP  
+ L=.18u  
+ W=.2u         
M_FLASH-64_FFD44_NAND-3_M4         FLASH-64_FFD44_Y N14250 N04936 N04936 CMOSP 
+  
+ L=.18u  
+ W=.2u         
M_FLASH-64_FFD44_NAND-3_M6         FLASH-64_FFD44_NAND-3_N05700
+  FLASH-64_FFD44_N00861 0 0 CMOSN  
+ L=.18u  
+ W=.18u         
M_FLASH-64_FFD44_NAND-3_M1         FLASH-64_FFD44_Y FLASH-64_FFD44_X
+  FLASH-64_FFD44_NAND-3_N05674 FLASH-64_FFD44_NAND-3_N05674 CMOSN  
+ L=.18u  
+ W=.18u         
M_FLASH-64_FFD44_NAND1_M1         FLASH-64_FFD44_N00861 FLASH-64_FFD44_Y
+  FLASH-64_FFD44_NAND1_N00209 FLASH-64_FFD44_NAND1_N00209 CMOSN  
+ L=.18u  
+ W=.18u         
M_FLASH-64_FFD44_NAND1_M2         FLASH-64_FFD44_NAND1_N00209 FLASH-64_N129035
+  0 0 CMOSN  
+ L=.18u  
+ W=.18u         
M_FLASH-64_FFD44_NAND1_M3         FLASH-64_FFD44_N00861 FLASH-64_FFD44_Y N04936
+  N04936 CMOSP  
+ L=.18u  
+ W=.2u         
M_FLASH-64_FFD44_NAND1_M4         FLASH-64_FFD44_N00861 FLASH-64_N129035 N04936
+  N04936 CMOSP  
+ L=.18u  
+ W=.2u         
R_FLASH-64_FFD44_NAND1_R1         FLASH-64_FFD44_Y 0  10Meg  
R_FLASH-64_FFD44_NAND1_R2         FLASH-64_N129035 0  10Meg  
M_FLASH-64_FFD44_NAND3_M1         Q44 FLASH-64_FFD44_X
+  FLASH-64_FFD44_NAND3_N00209 FLASH-64_FFD44_NAND3_N00209 CMOSN  
+ L=.18u  
+ W=.18u         
M_FLASH-64_FFD44_NAND3_M2         FLASH-64_FFD44_NAND3_N00209 -Q44 0 0 CMOSN  
+ L=.18u  
+ W=.18u         
M_FLASH-64_FFD44_NAND3_M3         Q44 FLASH-64_FFD44_X N04936 N04936 CMOSP  
+ L=.18u  
+ W=.2u         
M_FLASH-64_FFD44_NAND3_M4         Q44 -Q44 N04936 N04936 CMOSP  
+ L=.18u  
+ W=.2u         
R_FLASH-64_FFD44_NAND3_R1         FLASH-64_FFD44_X 0  10Meg  
R_FLASH-64_FFD44_NAND3_R2         -Q44 0  10Meg  
M_FLASH-64_FFD44_NAND2_M1         FLASH-64_FFD44_X FLASH-64_FFD44_N00589
+  FLASH-64_FFD44_NAND2_N00209 FLASH-64_FFD44_NAND2_N00209 CMOSN  
+ L=.18u  
+ W=.18u         
M_FLASH-64_FFD44_NAND2_M2         FLASH-64_FFD44_NAND2_N00209 N14250 0 0 CMOSN 
+  
+ L=.18u  
+ W=.18u         
M_FLASH-64_FFD44_NAND2_M3         FLASH-64_FFD44_X FLASH-64_FFD44_N00589 N04936
+  N04936 CMOSP  
+ L=.18u  
+ W=.2u         
M_FLASH-64_FFD44_NAND2_M4         FLASH-64_FFD44_X N14250 N04936 N04936 CMOSP  
+ L=.18u  
+ W=.2u         
R_FLASH-64_FFD44_NAND2_R1         FLASH-64_FFD44_N00589 0  10Meg  
R_FLASH-64_FFD44_NAND2_R2         N14250 0  10Meg  
M_FLASH-64_FFD44_NAND4_M1         -Q44 Q44 FLASH-64_FFD44_NAND4_N00209
+  FLASH-64_FFD44_NAND4_N00209 CMOSN  
+ L=.18u  
+ W=.18u         
M_FLASH-64_FFD44_NAND4_M2         FLASH-64_FFD44_NAND4_N00209 FLASH-64_FFD44_Y
+  0 0 CMOSN  
+ L=.18u  
+ W=.18u         
M_FLASH-64_FFD44_NAND4_M3         -Q44 Q44 N04936 N04936 CMOSP  
+ L=.18u  
+ W=.2u         
M_FLASH-64_FFD44_NAND4_M4         -Q44 FLASH-64_FFD44_Y N04936 N04936 CMOSP  
+ L=.18u  
+ W=.2u         
R_FLASH-64_FFD44_NAND4_R1         Q44 0  10Meg  
R_FLASH-64_FFD44_NAND4_R2         FLASH-64_FFD44_Y 0  10Meg  
M_FLASH-64_C25_M4         FLASH-64_C25_N26867 FLASH-64_C25_N27085 N04936 N04936
+  CMOSP  
+ L=.2u  
+ W=.6u         
M_FLASH-64_C25_M5         FLASH-64_C25_N27149 N16265 0 0 CMOSN  
+ L=.2u  
+ W=.6u         
M_FLASH-64_C25_M6         FLASH-64_N106885 FLASH-64_C25_N26867 N04936 N04936
+  CMOSP  
+ L=.2u  
+ W=.8u         
M_FLASH-64_C25_M7         FLASH-64_N106885 N16265 0 0 CMOSN  
+ L=.2u  
+ W=.4u         
M_FLASH-64_C25_M1         FLASH-64_C25_N27085 N17273 FLASH-64_C25_N27149 0
+  CMOSN  
+ L=.2u  
+ W=.4u         
M_FLASH-64_C25_M2         FLASH-64_C25_N26867 N01642 FLASH-64_C25_N27149 0
+  CMOSN  
+ L=.2u  
+ W=.4u         
M_FLASH-64_C25_M3         FLASH-64_C25_N27085 FLASH-64_C25_N27085 N04936 N04936
+  CMOSP  
+ L=.2u  
+ W=.6u         
M_FLASH-64_C58_M4         FLASH-64_C58_N26867 FLASH-64_C58_N27085 N04936 N04936
+  CMOSP  
+ L=.2u  
+ W=.6u         
M_FLASH-64_C58_M5         FLASH-64_C58_N27149 N16265 0 0 CMOSN  
+ L=.2u  
+ W=.6u         
M_FLASH-64_C58_M6         FLASH-64_N161341 FLASH-64_C58_N26867 N04936 N04936
+  CMOSP  
+ L=.2u  
+ W=.8u         
M_FLASH-64_C58_M7         FLASH-64_N161341 N16265 0 0 CMOSN  
+ L=.2u  
+ W=.4u         
M_FLASH-64_C58_M1         FLASH-64_C58_N27085 N17273 FLASH-64_C58_N27149 0
+  CMOSN  
+ L=.2u  
+ W=.4u         
M_FLASH-64_C58_M2         FLASH-64_C58_N26867 N02460 FLASH-64_C58_N27149 0
+  CMOSN  
+ L=.2u  
+ W=.4u         
M_FLASH-64_C58_M3         FLASH-64_C58_N27085 FLASH-64_C58_N27085 N04936 N04936
+  CMOSP  
+ L=.2u  
+ W=.6u         
C_FLASH-64_FFD1_C3         0 FLASH-64_FFD1_Y  10p  
M_FLASH-64_FFD1_NAND_M1         FLASH-64_FFD1_N00589 FLASH-64_FFD1_N00861
+  FLASH-64_FFD1_NAND_N00209 FLASH-64_FFD1_NAND_N00209 CMOSN  
+ L=.18u  
+ W=.18u         
M_FLASH-64_FFD1_NAND_M2         FLASH-64_FFD1_NAND_N00209 FLASH-64_FFD1_X 0 0
+  CMOSN  
+ L=.18u  
+ W=.18u         
M_FLASH-64_FFD1_NAND_M3         FLASH-64_FFD1_N00589 FLASH-64_FFD1_N00861
+  N04936 N04936 CMOSP  
+ L=.18u  
+ W=.2u         
M_FLASH-64_FFD1_NAND_M4         FLASH-64_FFD1_N00589 FLASH-64_FFD1_X N04936
+  N04936 CMOSP  
+ L=.18u  
+ W=.2u         
R_FLASH-64_FFD1_NAND_R1         FLASH-64_FFD1_N00861 0  10Meg  
R_FLASH-64_FFD1_NAND_R2         FLASH-64_FFD1_X 0  10Meg  
M_FLASH-64_FFD1_NAND-3_M2         FLASH-64_FFD1_NAND-3_N05674 N14250
+  FLASH-64_FFD1_NAND-3_N05700 FLASH-64_FFD1_NAND-3_N05700 CMOSN  
+ L=.18u  
+ W=.18u         
M_FLASH-64_FFD1_NAND-3_M3         FLASH-64_FFD1_Y FLASH-64_FFD1_X N04936 N04936
+  CMOSP  
+ L=.18u  
+ W=.2u         
M_FLASH-64_FFD1_NAND-3_M5         FLASH-64_FFD1_Y FLASH-64_FFD1_N00861 N04936
+  N04936 CMOSP  
+ L=.18u  
+ W=.2u         
M_FLASH-64_FFD1_NAND-3_M4         FLASH-64_FFD1_Y N14250 N04936 N04936 CMOSP  
+ L=.18u  
+ W=.2u         
M_FLASH-64_FFD1_NAND-3_M6         FLASH-64_FFD1_NAND-3_N05700
+  FLASH-64_FFD1_N00861 0 0 CMOSN  
+ L=.18u  
+ W=.18u         
M_FLASH-64_FFD1_NAND-3_M1         FLASH-64_FFD1_Y FLASH-64_FFD1_X
+  FLASH-64_FFD1_NAND-3_N05674 FLASH-64_FFD1_NAND-3_N05674 CMOSN  
+ L=.18u  
+ W=.18u         
M_FLASH-64_FFD1_NAND1_M1         FLASH-64_FFD1_N00861 FLASH-64_FFD1_Y
+  FLASH-64_FFD1_NAND1_N00209 FLASH-64_FFD1_NAND1_N00209 CMOSN  
+ L=.18u  
+ W=.18u         
M_FLASH-64_FFD1_NAND1_M2         FLASH-64_FFD1_NAND1_N00209 FLASH-64_N66477 0 0
+  CMOSN  
+ L=.18u  
+ W=.18u         
M_FLASH-64_FFD1_NAND1_M3         FLASH-64_FFD1_N00861 FLASH-64_FFD1_Y N04936
+  N04936 CMOSP  
+ L=.18u  
+ W=.2u         
M_FLASH-64_FFD1_NAND1_M4         FLASH-64_FFD1_N00861 FLASH-64_N66477 N04936
+  N04936 CMOSP  
+ L=.18u  
+ W=.2u         
R_FLASH-64_FFD1_NAND1_R1         FLASH-64_FFD1_Y 0  10Meg  
R_FLASH-64_FFD1_NAND1_R2         FLASH-64_N66477 0  10Meg  
M_FLASH-64_FFD1_NAND3_M1         Q1 FLASH-64_FFD1_X FLASH-64_FFD1_NAND3_N00209
+  FLASH-64_FFD1_NAND3_N00209 CMOSN  
+ L=.18u  
+ W=.18u         
M_FLASH-64_FFD1_NAND3_M2         FLASH-64_FFD1_NAND3_N00209 FLASH-64_N659031 0
+  0 CMOSN  
+ L=.18u  
+ W=.18u         
M_FLASH-64_FFD1_NAND3_M3         Q1 FLASH-64_FFD1_X N04936 N04936 CMOSP  
+ L=.18u  
+ W=.2u         
M_FLASH-64_FFD1_NAND3_M4         Q1 FLASH-64_N659031 N04936 N04936 CMOSP  
+ L=.18u  
+ W=.2u         
R_FLASH-64_FFD1_NAND3_R1         FLASH-64_FFD1_X 0  10Meg  
R_FLASH-64_FFD1_NAND3_R2         FLASH-64_N659031 0  10Meg  
M_FLASH-64_FFD1_NAND2_M1         FLASH-64_FFD1_X FLASH-64_FFD1_N00589
+  FLASH-64_FFD1_NAND2_N00209 FLASH-64_FFD1_NAND2_N00209 CMOSN  
+ L=.18u  
+ W=.18u         
M_FLASH-64_FFD1_NAND2_M2         FLASH-64_FFD1_NAND2_N00209 N14250 0 0 CMOSN  
+ L=.18u  
+ W=.18u         
M_FLASH-64_FFD1_NAND2_M3         FLASH-64_FFD1_X FLASH-64_FFD1_N00589 N04936
+  N04936 CMOSP  
+ L=.18u  
+ W=.2u         
M_FLASH-64_FFD1_NAND2_M4         FLASH-64_FFD1_X N14250 N04936 N04936 CMOSP  
+ L=.18u  
+ W=.2u         
R_FLASH-64_FFD1_NAND2_R1         FLASH-64_FFD1_N00589 0  10Meg  
R_FLASH-64_FFD1_NAND2_R2         N14250 0  10Meg  
M_FLASH-64_FFD1_NAND4_M1         FLASH-64_N659031 Q1 FLASH-64_FFD1_NAND4_N00209
+  FLASH-64_FFD1_NAND4_N00209 CMOSN  
+ L=.18u  
+ W=.18u         
M_FLASH-64_FFD1_NAND4_M2         FLASH-64_FFD1_NAND4_N00209 FLASH-64_FFD1_Y 0 0
+  CMOSN  
+ L=.18u  
+ W=.18u         
M_FLASH-64_FFD1_NAND4_M3         FLASH-64_N659031 Q1 N04936 N04936 CMOSP  
+ L=.18u  
+ W=.2u         
M_FLASH-64_FFD1_NAND4_M4         FLASH-64_N659031 FLASH-64_FFD1_Y N04936 N04936
+  CMOSP  
+ L=.18u  
+ W=.2u         
R_FLASH-64_FFD1_NAND4_R1         Q1 0  10Meg  
R_FLASH-64_FFD1_NAND4_R2         FLASH-64_FFD1_Y 0  10Meg  
C_FLASH-64_FFD16_C3         0 FLASH-64_FFD16_Y  10p  
M_FLASH-64_FFD16_NAND_M1         FLASH-64_FFD16_N00589 FLASH-64_FFD16_N00861
+  FLASH-64_FFD16_NAND_N00209 FLASH-64_FFD16_NAND_N00209 CMOSN  
+ L=.18u  
+ W=.18u         
M_FLASH-64_FFD16_NAND_M2         FLASH-64_FFD16_NAND_N00209 FLASH-64_FFD16_X 0
+  0 CMOSN  
+ L=.18u  
+ W=.18u         
M_FLASH-64_FFD16_NAND_M3         FLASH-64_FFD16_N00589 FLASH-64_FFD16_N00861
+  N04936 N04936 CMOSP  
+ L=.18u  
+ W=.2u         
M_FLASH-64_FFD16_NAND_M4         FLASH-64_FFD16_N00589 FLASH-64_FFD16_X N04936
+  N04936 CMOSP  
+ L=.18u  
+ W=.2u         
R_FLASH-64_FFD16_NAND_R1         FLASH-64_FFD16_N00861 0  10Meg  
R_FLASH-64_FFD16_NAND_R2         FLASH-64_FFD16_X 0  10Meg  
M_FLASH-64_FFD16_NAND-3_M2         FLASH-64_FFD16_NAND-3_N05674 N14250
+  FLASH-64_FFD16_NAND-3_N05700 FLASH-64_FFD16_NAND-3_N05700 CMOSN  
+ L=.18u  
+ W=.18u         
M_FLASH-64_FFD16_NAND-3_M3         FLASH-64_FFD16_Y FLASH-64_FFD16_X N04936
+  N04936 CMOSP  
+ L=.18u  
+ W=.2u         
M_FLASH-64_FFD16_NAND-3_M5         FLASH-64_FFD16_Y FLASH-64_FFD16_N00861
+  N04936 N04936 CMOSP  
+ L=.18u  
+ W=.2u         
M_FLASH-64_FFD16_NAND-3_M4         FLASH-64_FFD16_Y N14250 N04936 N04936 CMOSP 
+  
+ L=.18u  
+ W=.2u         
M_FLASH-64_FFD16_NAND-3_M6         FLASH-64_FFD16_NAND-3_N05700
+  FLASH-64_FFD16_N00861 0 0 CMOSN  
+ L=.18u  
+ W=.18u         
M_FLASH-64_FFD16_NAND-3_M1         FLASH-64_FFD16_Y FLASH-64_FFD16_X
+  FLASH-64_FFD16_NAND-3_N05674 FLASH-64_FFD16_NAND-3_N05674 CMOSN  
+ L=.18u  
+ W=.18u         
M_FLASH-64_FFD16_NAND1_M1         FLASH-64_FFD16_N00861 FLASH-64_FFD16_Y
+  FLASH-64_FFD16_NAND1_N00209 FLASH-64_FFD16_NAND1_N00209 CMOSN  
+ L=.18u  
+ W=.18u         
M_FLASH-64_FFD16_NAND1_M2         FLASH-64_FFD16_NAND1_N00209 FLASH-64_N68734 0
+  0 CMOSN  
+ L=.18u  
+ W=.18u         
M_FLASH-64_FFD16_NAND1_M3         FLASH-64_FFD16_N00861 FLASH-64_FFD16_Y N04936
+  N04936 CMOSP  
+ L=.18u  
+ W=.2u         
M_FLASH-64_FFD16_NAND1_M4         FLASH-64_FFD16_N00861 FLASH-64_N68734 N04936
+  N04936 CMOSP  
+ L=.18u  
+ W=.2u         
R_FLASH-64_FFD16_NAND1_R1         FLASH-64_FFD16_Y 0  10Meg  
R_FLASH-64_FFD16_NAND1_R2         FLASH-64_N68734 0  10Meg  
M_FLASH-64_FFD16_NAND3_M1         Q16 FLASH-64_FFD16_X
+  FLASH-64_FFD16_NAND3_N00209 FLASH-64_FFD16_NAND3_N00209 CMOSN  
+ L=.18u  
+ W=.18u         
M_FLASH-64_FFD16_NAND3_M2         FLASH-64_FFD16_NAND3_N00209 -Q16 0 0 CMOSN  
+ L=.18u  
+ W=.18u         
M_FLASH-64_FFD16_NAND3_M3         Q16 FLASH-64_FFD16_X N04936 N04936 CMOSP  
+ L=.18u  
+ W=.2u         
M_FLASH-64_FFD16_NAND3_M4         Q16 -Q16 N04936 N04936 CMOSP  
+ L=.18u  
+ W=.2u         
R_FLASH-64_FFD16_NAND3_R1         FLASH-64_FFD16_X 0  10Meg  
R_FLASH-64_FFD16_NAND3_R2         -Q16 0  10Meg  
M_FLASH-64_FFD16_NAND2_M1         FLASH-64_FFD16_X FLASH-64_FFD16_N00589
+  FLASH-64_FFD16_NAND2_N00209 FLASH-64_FFD16_NAND2_N00209 CMOSN  
+ L=.18u  
+ W=.18u         
M_FLASH-64_FFD16_NAND2_M2         FLASH-64_FFD16_NAND2_N00209 N14250 0 0 CMOSN 
+  
+ L=.18u  
+ W=.18u         
M_FLASH-64_FFD16_NAND2_M3         FLASH-64_FFD16_X FLASH-64_FFD16_N00589 N04936
+  N04936 CMOSP  
+ L=.18u  
+ W=.2u         
M_FLASH-64_FFD16_NAND2_M4         FLASH-64_FFD16_X N14250 N04936 N04936 CMOSP  
+ L=.18u  
+ W=.2u         
R_FLASH-64_FFD16_NAND2_R1         FLASH-64_FFD16_N00589 0  10Meg  
R_FLASH-64_FFD16_NAND2_R2         N14250 0  10Meg  
M_FLASH-64_FFD16_NAND4_M1         -Q16 Q16 FLASH-64_FFD16_NAND4_N00209
+  FLASH-64_FFD16_NAND4_N00209 CMOSN  
+ L=.18u  
+ W=.18u         
M_FLASH-64_FFD16_NAND4_M2         FLASH-64_FFD16_NAND4_N00209 FLASH-64_FFD16_Y
+  0 0 CMOSN  
+ L=.18u  
+ W=.18u         
M_FLASH-64_FFD16_NAND4_M3         -Q16 Q16 N04936 N04936 CMOSP  
+ L=.18u  
+ W=.2u         
M_FLASH-64_FFD16_NAND4_M4         -Q16 FLASH-64_FFD16_Y N04936 N04936 CMOSP  
+ L=.18u  
+ W=.2u         
R_FLASH-64_FFD16_NAND4_R1         Q16 0  10Meg  
R_FLASH-64_FFD16_NAND4_R2         FLASH-64_FFD16_Y 0  10Meg  
R_FLASH-64_R10         FLASH-64_N1053611 0  1Meg  
M_FLASH-64_C12_M4         FLASH-64_C12_N26867 FLASH-64_C12_N27085 N04936 N04936
+  CMOSP  
+ L=.2u  
+ W=.6u         
M_FLASH-64_C12_M5         FLASH-64_C12_N27149 N16265 0 0 CMOSN  
+ L=.2u  
+ W=.6u         
M_FLASH-64_C12_M6         FLASH-64_N68964 FLASH-64_C12_N26867 N04936 N04936
+  CMOSP  
+ L=.2u  
+ W=.8u         
M_FLASH-64_C12_M7         FLASH-64_N68964 N16265 0 0 CMOSN  
+ L=.2u  
+ W=.4u         
M_FLASH-64_C12_M1         FLASH-64_C12_N27085 N17273 FLASH-64_C12_N27149 0
+  CMOSN  
+ L=.2u  
+ W=.4u         
M_FLASH-64_C12_M2         FLASH-64_C12_N26867 N01668 FLASH-64_C12_N27149 0
+  CMOSN  
+ L=.2u  
+ W=.4u         
M_FLASH-64_C12_M3         FLASH-64_C12_N27085 FLASH-64_C12_N27085 N04936 N04936
+  CMOSP  
+ L=.2u  
+ W=.6u         
R_FLASH-64_R8         FLASH-64_N687080 0  1Meg  
C_FLASH-64_FFD35_C3         0 FLASH-64_FFD35_Y  10p  
M_FLASH-64_FFD35_NAND_M1         FLASH-64_FFD35_N00589 FLASH-64_FFD35_N00861
+  FLASH-64_FFD35_NAND_N00209 FLASH-64_FFD35_NAND_N00209 CMOSN  
+ L=.18u  
+ W=.18u         
M_FLASH-64_FFD35_NAND_M2         FLASH-64_FFD35_NAND_N00209 FLASH-64_FFD35_X 0
+  0 CMOSN  
+ L=.18u  
+ W=.18u         
M_FLASH-64_FFD35_NAND_M3         FLASH-64_FFD35_N00589 FLASH-64_FFD35_N00861
+  N04936 N04936 CMOSP  
+ L=.18u  
+ W=.2u         
M_FLASH-64_FFD35_NAND_M4         FLASH-64_FFD35_N00589 FLASH-64_FFD35_X N04936
+  N04936 CMOSP  
+ L=.18u  
+ W=.2u         
R_FLASH-64_FFD35_NAND_R1         FLASH-64_FFD35_N00861 0  10Meg  
R_FLASH-64_FFD35_NAND_R2         FLASH-64_FFD35_X 0  10Meg  
M_FLASH-64_FFD35_NAND-3_M2         FLASH-64_FFD35_NAND-3_N05674 N14250
+  FLASH-64_FFD35_NAND-3_N05700 FLASH-64_FFD35_NAND-3_N05700 CMOSN  
+ L=.18u  
+ W=.18u         
M_FLASH-64_FFD35_NAND-3_M3         FLASH-64_FFD35_Y FLASH-64_FFD35_X N04936
+  N04936 CMOSP  
+ L=.18u  
+ W=.2u         
M_FLASH-64_FFD35_NAND-3_M5         FLASH-64_FFD35_Y FLASH-64_FFD35_N00861
+  N04936 N04936 CMOSP  
+ L=.18u  
+ W=.2u         
M_FLASH-64_FFD35_NAND-3_M4         FLASH-64_FFD35_Y N14250 N04936 N04936 CMOSP 
+  
+ L=.18u  
+ W=.2u         
M_FLASH-64_FFD35_NAND-3_M6         FLASH-64_FFD35_NAND-3_N05700
+  FLASH-64_FFD35_N00861 0 0 CMOSN  
+ L=.18u  
+ W=.18u         
M_FLASH-64_FFD35_NAND-3_M1         FLASH-64_FFD35_Y FLASH-64_FFD35_X
+  FLASH-64_FFD35_NAND-3_N05674 FLASH-64_FFD35_NAND-3_N05674 CMOSN  
+ L=.18u  
+ W=.18u         
M_FLASH-64_FFD35_NAND1_M1         FLASH-64_FFD35_N00861 FLASH-64_FFD35_Y
+  FLASH-64_FFD35_NAND1_N00209 FLASH-64_FFD35_NAND1_N00209 CMOSN  
+ L=.18u  
+ W=.18u         
M_FLASH-64_FFD35_NAND1_M2         FLASH-64_FFD35_NAND1_N00209 FLASH-64_N127901
+  0 0 CMOSN  
+ L=.18u  
+ W=.18u         
M_FLASH-64_FFD35_NAND1_M3         FLASH-64_FFD35_N00861 FLASH-64_FFD35_Y N04936
+  N04936 CMOSP  
+ L=.18u  
+ W=.2u         
M_FLASH-64_FFD35_NAND1_M4         FLASH-64_FFD35_N00861 FLASH-64_N127901 N04936
+  N04936 CMOSP  
+ L=.18u  
+ W=.2u         
R_FLASH-64_FFD35_NAND1_R1         FLASH-64_FFD35_Y 0  10Meg  
R_FLASH-64_FFD35_NAND1_R2         FLASH-64_N127901 0  10Meg  
M_FLASH-64_FFD35_NAND3_M1         Q35 FLASH-64_FFD35_X
+  FLASH-64_FFD35_NAND3_N00209 FLASH-64_FFD35_NAND3_N00209 CMOSN  
+ L=.18u  
+ W=.18u         
M_FLASH-64_FFD35_NAND3_M2         FLASH-64_FFD35_NAND3_N00209 FLASH-64_N1275231
+  0 0 CMOSN  
+ L=.18u  
+ W=.18u         
M_FLASH-64_FFD35_NAND3_M3         Q35 FLASH-64_FFD35_X N04936 N04936 CMOSP  
+ L=.18u  
+ W=.2u         
M_FLASH-64_FFD35_NAND3_M4         Q35 FLASH-64_N1275231 N04936 N04936 CMOSP  
+ L=.18u  
+ W=.2u         
R_FLASH-64_FFD35_NAND3_R1         FLASH-64_FFD35_X 0  10Meg  
R_FLASH-64_FFD35_NAND3_R2         FLASH-64_N1275231 0  10Meg  
M_FLASH-64_FFD35_NAND2_M1         FLASH-64_FFD35_X FLASH-64_FFD35_N00589
+  FLASH-64_FFD35_NAND2_N00209 FLASH-64_FFD35_NAND2_N00209 CMOSN  
+ L=.18u  
+ W=.18u         
M_FLASH-64_FFD35_NAND2_M2         FLASH-64_FFD35_NAND2_N00209 N14250 0 0 CMOSN 
+  
+ L=.18u  
+ W=.18u         
M_FLASH-64_FFD35_NAND2_M3         FLASH-64_FFD35_X FLASH-64_FFD35_N00589 N04936
+  N04936 CMOSP  
+ L=.18u  
+ W=.2u         
M_FLASH-64_FFD35_NAND2_M4         FLASH-64_FFD35_X N14250 N04936 N04936 CMOSP  
+ L=.18u  
+ W=.2u         
R_FLASH-64_FFD35_NAND2_R1         FLASH-64_FFD35_N00589 0  10Meg  
R_FLASH-64_FFD35_NAND2_R2         N14250 0  10Meg  
M_FLASH-64_FFD35_NAND4_M1         FLASH-64_N1275231 Q35
+  FLASH-64_FFD35_NAND4_N00209 FLASH-64_FFD35_NAND4_N00209 CMOSN  
+ L=.18u  
+ W=.18u         
M_FLASH-64_FFD35_NAND4_M2         FLASH-64_FFD35_NAND4_N00209 FLASH-64_FFD35_Y
+  0 0 CMOSN  
+ L=.18u  
+ W=.18u         
M_FLASH-64_FFD35_NAND4_M3         FLASH-64_N1275231 Q35 N04936 N04936 CMOSP  
+ L=.18u  
+ W=.2u         
M_FLASH-64_FFD35_NAND4_M4         FLASH-64_N1275231 FLASH-64_FFD35_Y N04936
+  N04936 CMOSP  
+ L=.18u  
+ W=.2u         
R_FLASH-64_FFD35_NAND4_R1         Q35 0  10Meg  
R_FLASH-64_FFD35_NAND4_R2         FLASH-64_FFD35_Y 0  10Meg  
C_FLASH-64_FFD62_C3         0 FLASH-64_FFD62_Y  10p  
M_FLASH-64_FFD62_NAND_M1         FLASH-64_FFD62_N00589 FLASH-64_FFD62_N00861
+  FLASH-64_FFD62_NAND_N00209 FLASH-64_FFD62_NAND_N00209 CMOSN  
+ L=.18u  
+ W=.18u         
M_FLASH-64_FFD62_NAND_M2         FLASH-64_FFD62_NAND_N00209 FLASH-64_FFD62_X 0
+  0 CMOSN  
+ L=.18u  
+ W=.18u         
M_FLASH-64_FFD62_NAND_M3         FLASH-64_FFD62_N00589 FLASH-64_FFD62_N00861
[...]

(FLASH-64_FFD37_NAND2_N00209)    3.9207                                         

(FLASH-64_FFD37_NAND3_N00209)    3.9183                                         

(FLASH-64_FFD37_NAND4_N00209) 1.228E-06                                         

(FLASH-64_FFD38_NAND1_N00209) 1.215E-06                                         

(FLASH-64_FFD38_NAND2_N00209)    3.9207                                         

(FLASH-64_FFD38_NAND3_N00209)    3.9183                                         

(FLASH-64_FFD38_NAND4_N00209) 1.238E-06                                         

(FLASH-64_FFD39_NAND1_N00209) 1.215E-06                                         

(FLASH-64_FFD39_NAND2_N00209)    3.9207                                         

(FLASH-64_FFD39_NAND3_N00209)    3.9183                                         

(FLASH-64_FFD39_NAND4_N00209) 1.228E-06                                         

(FLASH-64_FFD3_NAND-3_N05674)    3.9752                                         

(FLASH-64_FFD3_NAND-3_N05700)     .0760                                         

(FLASH-64_FFD40_NAND1_N00209) 1.215E-06                                         

(FLASH-64_FFD40_NAND2_N00209)    3.9207                                         

(FLASH-64_FFD40_NAND3_N00209)    3.9183                                         

(FLASH-64_FFD40_NAND4_N00209) 1.236E-06                                         

(FLASH-64_FFD41_NAND1_N00209) 1.215E-06                                         

(FLASH-64_FFD41_NAND2_N00209)    3.9207                                         

(FLASH-64_FFD41_NAND3_N00209)    3.9183                                         

(FLASH-64_FFD41_NAND4_N00209) 1.228E-06                                         

(FLASH-64_FFD42_NAND1_N00209) 1.215E-06                                         

(FLASH-64_FFD42_NAND2_N00209)    3.9207                                         

(FLASH-64_FFD42_NAND3_N00209)    3.9183                                         

(FLASH-64_FFD42_NAND4_N00209) 1.238E-06                                         

(FLASH-64_FFD43_NAND1_N00209) 1.215E-06                                         

(FLASH-64_FFD43_NAND2_N00209)    3.9207                                         

(FLASH-64_FFD43_NAND3_N00209)    3.9183                                         

(FLASH-64_FFD43_NAND4_N00209) 1.228E-06                                         

(FLASH-64_FFD44_NAND1_N00209) 1.215E-06                                         

(FLASH-64_FFD44_NAND2_N00209)    3.9207                                         

(FLASH-64_FFD44_NAND3_N00209)    3.9183                                         

(FLASH-64_FFD44_NAND4_N00209) 1.237E-06                                         

(FLASH-64_FFD45_NAND1_N00209) 1.215E-06                                         

(FLASH-64_FFD45_NAND2_N00209)    3.9207                                         

(FLASH-64_FFD45_NAND3_N00209)    3.9183                                         

(FLASH-64_FFD45_NAND4_N00209) 1.228E-06                                         

(FLASH-64_FFD46_NAND1_N00209) 1.215E-06                                         

(FLASH-64_FFD46_NAND2_N00209)    3.9207                                         

(FLASH-64_FFD46_NAND3_N00209)    3.9183                                         

(FLASH-64_FFD46_NAND4_N00209) 1.238E-06                                         

(FLASH-64_FFD47_NAND1_N00209) 1.215E-06                                         

(FLASH-64_FFD47_NAND2_N00209)    3.9207                                         

(FLASH-64_FFD47_NAND3_N00209)    3.9183                                         

(FLASH-64_FFD47_NAND4_N00209) 1.228E-06                                         

(FLASH-64_FFD48_NAND1_N00209) 1.215E-06                                         

(FLASH-64_FFD48_NAND2_N00209)    3.9207                                         

(FLASH-64_FFD48_NAND3_N00209)    3.9183                                         

(FLASH-64_FFD48_NAND4_N00209) 1.235E-06                                         

(FLASH-64_FFD49_NAND1_N00209) 1.215E-06                                         

(FLASH-64_FFD49_NAND2_N00209)    3.9207                                         

(FLASH-64_FFD49_NAND3_N00209)    3.9183                                         

(FLASH-64_FFD49_NAND4_N00209) 1.228E-06                                         

(FLASH-64_FFD4_NAND-3_N05674)    3.9752                                         

(FLASH-64_FFD4_NAND-3_N05700)     .0760                                         

(FLASH-64_FFD50_NAND1_N00209) 1.215E-06                                         

(FLASH-64_FFD50_NAND2_N00209)    3.9207                                         

(FLASH-64_FFD50_NAND3_N00209)    3.9183                                         

(FLASH-64_FFD50_NAND4_N00209) 1.238E-06                                         

(FLASH-64_FFD51_NAND1_N00209) 1.215E-06                                         

(FLASH-64_FFD51_NAND2_N00209)    3.9207                                         

(FLASH-64_FFD51_NAND3_N00209)    3.9183                                         

(FLASH-64_FFD51_NAND4_N00209) 1.228E-06                                         

(FLASH-64_FFD52_NAND1_N00209) 1.215E-06                                         

(FLASH-64_FFD52_NAND2_N00209)    3.9207                                         

(FLASH-64_FFD52_NAND3_N00209)    3.9183                                         

(FLASH-64_FFD52_NAND4_N00209) 1.237E-06                                         

(FLASH-64_FFD53_NAND1_N00209) 1.215E-06                                         

(FLASH-64_FFD53_NAND2_N00209)    3.9207                                         

(FLASH-64_FFD53_NAND3_N00209)    3.9183                                         

(FLASH-64_FFD53_NAND4_N00209) 1.228E-06                                         

(FLASH-64_FFD54_NAND1_N00209) 1.215E-06                                         

(FLASH-64_FFD54_NAND2_N00209)    3.9207                                         

(FLASH-64_FFD54_NAND3_N00209)    3.9183                                         

(FLASH-64_FFD54_NAND4_N00209) 1.238E-06                                         

(FLASH-64_FFD55_NAND1_N00209) 1.215E-06                                         

(FLASH-64_FFD55_NAND2_N00209)    3.9207                                         

(FLASH-64_FFD55_NAND3_N00209)    3.9183                                         

(FLASH-64_FFD55_NAND4_N00209) 1.228E-06                                         

(FLASH-64_FFD56_NAND1_N00209) 1.215E-06                                         

(FLASH-64_FFD56_NAND2_N00209)    3.9207                                         

(FLASH-64_FFD56_NAND3_N00209)    3.9183                                         

(FLASH-64_FFD56_NAND4_N00209) 1.236E-06                                         

(FLASH-64_FFD57_NAND1_N00209) 1.215E-06                                         

(FLASH-64_FFD57_NAND2_N00209)    3.9207                                         

(FLASH-64_FFD57_NAND3_N00209)    3.9183                                         

(FLASH-64_FFD57_NAND4_N00209) 1.228E-06                                         

(FLASH-64_FFD58_NAND1_N00209) 1.215E-06                                         

(FLASH-64_FFD58_NAND2_N00209)    3.9207                                         

(FLASH-64_FFD58_NAND3_N00209)    3.9183                                         

(FLASH-64_FFD58_NAND4_N00209) 1.238E-06                                         

(FLASH-64_FFD59_NAND1_N00209) 1.215E-06                                         

(FLASH-64_FFD59_NAND2_N00209)    3.9207                                         

(FLASH-64_FFD59_NAND3_N00209)    3.9183                                         

(FLASH-64_FFD59_NAND4_N00209) 1.228E-06                                         

(FLASH-64_FFD5_NAND-3_N05674)    3.9752                                         

(FLASH-64_FFD5_NAND-3_N05700)     .0760                                         

(FLASH-64_FFD60_NAND1_N00209) 1.215E-06                                         

(FLASH-64_FFD60_NAND2_N00209)    3.9207                                         

(FLASH-64_FFD60_NAND3_N00209)    3.9183                                         

(FLASH-64_FFD60_NAND4_N00209) 1.237E-06                                         

(FLASH-64_FFD61_NAND1_N00209) 1.215E-06                                         

(FLASH-64_FFD61_NAND2_N00209)    3.9207                                         

(FLASH-64_FFD61_NAND3_N00209)    3.9183                                         

(FLASH-64_FFD61_NAND4_N00209) 1.228E-06                                         

(FLASH-64_FFD62_NAND1_N00209) 1.215E-06                                         

(FLASH-64_FFD62_NAND2_N00209)    3.9207                                         

(FLASH-64_FFD62_NAND3_N00209)    3.9183                                         

(FLASH-64_FFD62_NAND4_N00209) 1.238E-06                                         

(FLASH-64_FFD63_NAND1_N00209) 1.215E-06                                         

(FLASH-64_FFD63_NAND2_N00209)    3.9207                                         

(FLASH-64_FFD63_NAND3_N00209)    3.9183                                         

(FLASH-64_FFD63_NAND4_N00209) 1.228E-06                                         

(FLASH-64_FFD6_NAND-3_N05674)    3.9752                                         

(FLASH-64_FFD6_NAND-3_N05700)     .0760                                         

(FLASH-64_FFD7_NAND-3_N05674)    3.9752                                         

(FLASH-64_FFD7_NAND-3_N05700)     .0760                                         

(FLASH-64_FFD8_NAND-3_N05674)    3.9752                                         

(FLASH-64_FFD8_NAND-3_N05700)     .0760                                         

(FLASH-64_FFD9_NAND-3_N05674)    3.9752                                         

(FLASH-64_FFD9_NAND-3_N05700)     .0760                                         

(FLASH-64_FFD10_NAND-3_N05674)    3.9752                                        

(FLASH-64_FFD10_NAND-3_N05700)     .0760                                        

(FLASH-64_FFD11_NAND-3_N05674)    3.9752                                        

(FLASH-64_FFD11_NAND-3_N05700)     .0760                                        

(FLASH-64_FFD12_NAND-3_N05674)    3.9752                                        

(FLASH-64_FFD12_NAND-3_N05700)     .0760                                        

(FLASH-64_FFD13_NAND-3_N05674)    3.9752                                        

(FLASH-64_FFD13_NAND-3_N05700)     .0760                                        

(FLASH-64_FFD14_NAND-3_N05674)    3.9752                                        

(FLASH-64_FFD14_NAND-3_N05700)     .0760                                        

(FLASH-64_FFD15_NAND-3_N05674)    3.9752                                        

(FLASH-64_FFD15_NAND-3_N05700)     .0760                                        

(FLASH-64_FFD16_NAND-3_N05674)    3.9752                                        

(FLASH-64_FFD16_NAND-3_N05700)     .0760                                        

(FLASH-64_FFD17_NAND-3_N05674)    3.9752                                        

(FLASH-64_FFD17_NAND-3_N05700)     .0760                                        

(FLASH-64_FFD18_NAND-3_N05674)    3.9752                                        

(FLASH-64_FFD18_NAND-3_N05700)     .0760                                        

(FLASH-64_FFD19_NAND-3_N05674)    3.9752                                        

(FLASH-64_FFD19_NAND-3_N05700)     .0760                                        

(FLASH-64_FFD20_NAND-3_N05674)    3.9752                                        

(FLASH-64_FFD20_NAND-3_N05700)     .0760                                        

(FLASH-64_FFD21_NAND-3_N05674)    3.9752                                        

(FLASH-64_FFD21_NAND-3_N05700)     .0760                                        

(FLASH-64_FFD22_NAND-3_N05674)    3.9752                                        

(FLASH-64_FFD22_NAND-3_N05700)     .0760                                        

(FLASH-64_FFD23_NAND-3_N05674)    3.9752                                        

(FLASH-64_FFD23_NAND-3_N05700)     .0760                                        

(FLASH-64_FFD24_NAND-3_N05674)    3.9752                                        

(FLASH-64_FFD24_NAND-3_N05700)     .0760                                        

(FLASH-64_FFD25_NAND-3_N05674)    3.9752                                        

(FLASH-64_FFD25_NAND-3_N05700)     .0760                                        

(FLASH-64_FFD26_NAND-3_N05674)    3.9752                                        

(FLASH-64_FFD26_NAND-3_N05700)     .0760                                        

(FLASH-64_FFD27_NAND-3_N05674)    3.9752                                        

(FLASH-64_FFD27_NAND-3_N05700)     .0760                                        

(FLASH-64_FFD28_NAND-3_N05674)    3.9752                                        

(FLASH-64_FFD28_NAND-3_N05700)     .0760                                        

(FLASH-64_FFD29_NAND-3_N05674)    3.9752                                        

(FLASH-64_FFD29_NAND-3_N05700)     .0760                                        

(FLASH-64_FFD30_NAND-3_N05674)    3.9752                                        

(FLASH-64_FFD30_NAND-3_N05700)     .0760                                        

(FLASH-64_FFD31_NAND-3_N05674)    3.9752                                        

(FLASH-64_FFD31_NAND-3_N05700)     .0760                                        

(FLASH-64_FFD32_NAND-3_N05674)    3.9752                                        

(FLASH-64_FFD32_NAND-3_N05700)     .0760                                        

(FLASH-64_FFD33_NAND-3_N05674)    3.9752                                        

(FLASH-64_FFD33_NAND-3_N05700)     .0760                                        

(FLASH-64_FFD34_NAND-3_N05674)    3.9752                                        

(FLASH-64_FFD34_NAND-3_N05700)     .0760                                        

(FLASH-64_FFD35_NAND-3_N05674)    3.9752                                        

(FLASH-64_FFD35_NAND-3_N05700)     .0760                                        

(FLASH-64_FFD36_NAND-3_N05674)    3.9752                                        

(FLASH-64_FFD36_NAND-3_N05700)     .0760                                        

(FLASH-64_FFD37_NAND-3_N05674)    3.9752                                        

(FLASH-64_FFD37_NAND-3_N05700)     .0760                                        

(FLASH-64_FFD38_NAND-3_N05674)    3.9752                                        

(FLASH-64_FFD38_NAND-3_N05700)     .0760                                        

(FLASH-64_FFD39_NAND-3_N05674)    3.9752                                        

(FLASH-64_FFD39_NAND-3_N05700)     .0760                                        

(FLASH-64_FFD40_NAND-3_N05674)    3.9752                                        

(FLASH-64_FFD40_NAND-3_N05700)     .0760                                        

(FLASH-64_FFD41_NAND-3_N05674)    3.9752                                        

(FLASH-64_FFD41_NAND-3_N05700)     .0760                                        

(FLASH-64_FFD42_NAND-3_N05674)    3.9752                                        

(FLASH-64_FFD42_NAND-3_N05700)     .0760                                        

(FLASH-64_FFD43_NAND-3_N05674)    3.9752                                        

(FLASH-64_FFD43_NAND-3_N05700)     .0760                                        

(FLASH-64_FFD44_NAND-3_N05674)    3.9752                                        

(FLASH-64_FFD44_NAND-3_N05700)     .0760                                        

(FLASH-64_FFD45_NAND-3_N05674)    3.9752                                        

(FLASH-64_FFD45_NAND-3_N05700)     .0760                                        

(FLASH-64_FFD46_NAND-3_N05674)    3.9752                                        

(FLASH-64_FFD46_NAND-3_N05700)     .0760                                        

(FLASH-64_FFD47_NAND-3_N05674)    3.9752                                        

(FLASH-64_FFD47_NAND-3_N05700)     .0760                                        

(FLASH-64_FFD48_NAND-3_N05674)    3.9752                                        

(FLASH-64_FFD48_NAND-3_N05700)     .0760                                        

(FLASH-64_FFD49_NAND-3_N05674)    3.9752                                        

(FLASH-64_FFD49_NAND-3_N05700)     .0760                                        

(FLASH-64_FFD50_NAND-3_N05674)    3.9752                                        

(FLASH-64_FFD50_NAND-3_N05700)     .0760                                        

(FLASH-64_FFD51_NAND-3_N05674)    3.9752                                        

(FLASH-64_FFD51_NAND-3_N05700)     .0760                                        

(FLASH-64_FFD52_NAND-3_N05674)    3.9752                                        

(FLASH-64_FFD52_NAND-3_N05700)     .0760                                        

(FLASH-64_FFD53_NAND-3_N05674)    3.9752                                        

(FLASH-64_FFD53_NAND-3_N05700)     .0760                                        

(FLASH-64_FFD54_NAND-3_N05674)    3.9752                                        

(FLASH-64_FFD54_NAND-3_N05700)     .0760                                        

(FLASH-64_FFD55_NAND-3_N05674)    3.9752                                        

(FLASH-64_FFD55_NAND-3_N05700)     .0760                                        

(FLASH-64_FFD56_NAND-3_N05674)    3.9752                                        

(FLASH-64_FFD56_NAND-3_N05700)     .0760                                        

(FLASH-64_FFD57_NAND-3_N05674)    3.9752                                        

(FLASH-64_FFD57_NAND-3_N05700)     .0760                                        

(FLASH-64_FFD58_NAND-3_N05674)    3.9752                                        

(FLASH-64_FFD58_NAND-3_N05700)     .0760                                        

(FLASH-64_FFD59_NAND-3_N05674)    3.9752                                        

(FLASH-64_FFD59_NAND-3_N05700)     .0760                                        

(FLASH-64_FFD60_NAND-3_N05674)    3.9752                                        

(FLASH-64_FFD60_NAND-3_N05700)     .0760                                        

(FLASH-64_FFD61_NAND-3_N05674)    3.9752                                        

(FLASH-64_FFD61_NAND-3_N05700)     .0760                                        

(FLASH-64_FFD62_NAND-3_N05674)    3.9752                                        

(FLASH-64_FFD62_NAND-3_N05700)     .0760                                        

(FLASH-64_FFD63_NAND-3_N05674)    3.9752                                        

(FLASH-64_FFD63_NAND-3_N05700)     .0760                 




    VOLTAGE SOURCE CURRENTS
    NAME         CURRENT

    V_Vbias      0.000E+00
    V_VDD       -3.278E-04
    V_Va         0.000E+00
    V_Vo        -1.290E-05
    V_Clock      0.000E+00
    V_2-LEADER_V1   6.452E-06
    V_1-LEADER_V1   6.452E-06

    TOTAL POWER DISSIPATION   1.36E-03  WATTS



          JOB CONCLUDED

**** 12/15/09 23:29:34 ******* PSpice 10.5.0 (Jan 2005) ******* ID# 0 ********

 ** Profile: "TEST-bias"  [ D:\Documents\TESIS\TRUNK\Design\I-FLASH-01\OrCAD\I-FLASH-6BITS\i-flash-6bits-PSpiceFiles\TEST\bias.sim ] 


 ****     JOB STATISTICS SUMMARY


******************************************************************************



  Total job time (using Solver 1)   =       36.54
