
**** 03/22/10 12:18:50 ******* PSpice 16.0.0 (July 2006) ****** ID# 0 ********

 ** Profile: "NDECODER-64-prueba"  [ D:\Documents\TESIS\fiocs\Design\I-DECODER-001\OrCAD\I-DECODER-6BITS\i-decoder-6bits-pspicefiles\


 ****     CIRCUIT DESCRIPTION


******************************************************************************




** Creating circuit file "prueba.cir" 
** WARNING: THIS AUTOMATICALLY GENERATED FILE MAY BE OVERWRITTEN BY SUBSEQUENT SIMULATIONS

*Libraries: 
* Profile Libraries :
* Local Libraries :
.LIB "../../../i-decoder-6bits-pspicefiles/i-decoder-6bits.lib" 
* From [PSPICE NETLIST] section of C:\OrCAD\OrCAD_16.0\tools\PSpice\PSpice.ini file:
.lib "nom.lib" 

*Analysis directives: 
.TRAN  0 15u 0 0.001u 
.PROBE V(alias(*)) I(alias(*)) W(alias(*)) D(alias(*)) NOISE(alias(*)) 
.INC "..\NDECODER-64.net" 



**** INCLUDING NDECODER-64.net ****
* source I-DECODER-6BITS
R_R1         MSB MSB  100k  
R_R5         2SB MSB  100k  
R_R3         4SB MSB  100k  
M_U4_U78_M5         U4_N312976 X3 MSB MSB CMOSP  
+ L=.18u  
+ W=.2u         
M_U4_U78_M6         U4_N312976 X3 0 0 CMOSN  
+ L=.18u  
+ W=.18u         
M_U4_U32_M5         U4_N265636 0 MSB MSB CMOSP  
+ L=.18u  
+ W=.2u         
M_U4_U32_M6         U4_N265636 0 U4_U32_N39991 0 CMOSN  
+ L=.18u  
+ W=.18u         
M_U4_U32_M2         U4_U32_N39991 MSB 0 0 CMOSN  
+ L=.18u  
+ W=.18u         
M_U4_U32_M4         U4_N265636 MSB MSB MSB CMOSP  
+ L=.18u  
+ W=.2u         
M_U4_U4_M5         U4_N245622 0 MSB MSB CMOSP  
+ L=.18u  
+ W=.2u         
M_U4_U4_M6         U4_N245622 0 U4_U4_N39991 0 CMOSN  
+ L=.18u  
+ W=.18u         
M_U4_U4_M2         U4_U4_N39991 MSB 0 0 CMOSN  
+ L=.18u  
+ W=.18u         
M_U4_U4_M4         U4_N245622 MSB MSB MSB CMOSP  
+ L=.18u  
+ W=.2u         
M_U4_U68_M5         U4_N312290 0 MSB MSB CMOSP  
+ L=.18u  
+ W=.2u         
M_U4_U68_M6         U4_N312290 0 U4_U68_N39991 0 CMOSN  
+ L=.18u  
+ W=.18u         
M_U4_U68_M2         U4_U68_N39991 MSB 0 0 CMOSN  
+ L=.18u  
+ W=.18u         
M_U4_U68_M4         U4_N312290 MSB MSB MSB CMOSP  
+ L=.18u  
+ W=.2u         
M_U4_U15_M5         U4_N246462 0 MSB MSB CMOSP  
+ L=.18u  
+ W=.2u         
M_U4_U15_M6         U4_N246462 0 U4_U15_N39991 0 CMOSN  
+ L=.18u  
+ W=.18u         
M_U4_U15_M2         U4_U15_N39991 MSB 0 0 CMOSN  
+ L=.18u  
+ W=.18u         
M_U4_U15_M4         U4_N246462 MSB MSB MSB CMOSP  
+ L=.18u  
+ W=.2u         
M_U4_U56_M5         U4_N309055 0 MSB MSB CMOSP  
+ L=.18u  
+ W=.2u         
M_U4_U56_M6         U4_N309055 0 U4_U56_N39991 0 CMOSN  
+ L=.18u  
+ W=.18u         
M_U4_U56_M2         U4_U56_N39991 MSB 0 0 CMOSN  
+ L=.18u  
+ W=.18u         
M_U4_U56_M4         U4_N309055 MSB MSB MSB CMOSP  
+ L=.18u  
+ W=.2u         
M_U4_U75_M16         U4_X4 U4_N312302 MSB MSB CMOSP  
+ L=.18u  
+ W=.2u         
M_U4_U75_M5         U4_X4 U4_N312326 MSB MSB CMOSP  
+ L=.18u  
+ W=.2u         
M_U4_U75_M11         U4_X4 U4_N312290 MSB MSB CMOSP  
+ L=.18u  
+ W=.2u         
M_U4_U75_M9         U4_X4 U4_N312310 MSB MSB CMOSP  
+ L=.18u  
+ W=.2u         
M_U4_U75_M1         U4_X4 U4_N312290 U4_U75_N67495 0 CMOSN  
+ L=.18u  
+ W=.18u         
M_U4_U75_M6         U4_U75_N66385 U4_N312298 U4_U75_N66425 0 CMOSN  
+ L=.18u  
+ W=.18u         
M_U4_U75_M7         U4_U75_N66425 U4_N312302 U4_U75_N66937 0 CMOSN  
+ L=.18u  
+ W=.18u         
M_U4_U75_M12         U4_X4 U4_N312618 MSB MSB CMOSP  
+ L=.18u  
+ W=.2u         
M_U4_U75_M2         U4_U75_N67495 U4_N312294 U4_U75_N66385 0 CMOSN  
+ L=.18u  
+ W=.18u         
M_U4_U75_M13         U4_U75_N67207 U4_N312310 U4_U75_N67213 0 CMOSN  
+ L=.18u  
+ W=.18u         
M_U4_U75_M10         U4_U75_N66937 U4_N312618 U4_U75_N67207 0 CMOSN  
+ L=.18u  
+ W=.18u         
M_U4_U75_M3         U4_X4 U4_N312294 MSB MSB CMOSP  
+ L=.18u  
+ W=.2u         
M_U4_U75_M14         U4_U75_N67213 U4_N312318 U4_U75_N66527 0 CMOSN  
+ L=.18u  
+ W=.18u         
M_U4_U75_M8         U4_X4 U4_N312318 MSB MSB CMOSP  
+ L=.18u  
+ W=.2u         
M_U4_U75_M4         U4_X4 U4_N312298 MSB MSB CMOSP  
+ L=.18u  
+ W=.2u         
M_U4_U75_M15         U4_U75_N66527 U4_N312326 0 0 CMOSN  
+ L=.18u  
+ W=.18u         
M_U4_U49_M16         X1 U4_N308739 MSB MSB CMOSP  
+ L=.18u  
+ W=.2u         
M_U4_U49_M5         X1 U4_N308767 MSB MSB CMOSP  
+ L=.18u  
+ W=.2u         
M_U4_U49_M11         X1 -V1 MSB MSB CMOSP  
+ L=.18u  
+ W=.2u         
M_U4_U49_M9         X1 U4_N308811 MSB MSB CMOSP  
+ L=.18u  
+ W=.2u         
M_U4_U49_M1         X1 -V1 U4_U49_N67495 0 CMOSN  
+ L=.18u  
+ W=.18u         
M_U4_U49_M6         U4_U49_N66385 U4_N308687 U4_U49_N66425 0 CMOSN  
+ L=.18u  
+ W=.18u         
M_U4_U49_M7         U4_U49_N66425 U4_N308739 U4_U49_N66937 0 CMOSN  
+ L=.18u  
+ W=.18u         
M_U4_U49_M12         X1 U4_N308919 MSB MSB CMOSP  
+ L=.18u  
+ W=.2u         
M_U4_U49_M2         U4_U49_N67495 U4_N308675 U4_U49_N66385 0 CMOSN  
+ L=.18u  
+ W=.18u         
M_U4_U49_M13         U4_U49_N67207 U4_N308811 U4_U49_N67213 0 CMOSN  
+ L=.18u  
+ W=.18u         
M_U4_U49_M10         U4_U49_N66937 U4_N308919 U4_U49_N67207 0 CMOSN  
+ L=.18u  
+ W=.18u         
M_U4_U49_M3         X1 U4_N308675 MSB MSB CMOSP  
+ L=.18u  
+ W=.2u         
M_U4_U49_M14         U4_U49_N67213 U4_N308789 U4_U49_N66527 0 CMOSN  
+ L=.18u  
+ W=.18u         
M_U4_U49_M8         X1 U4_N308789 MSB MSB CMOSP  
+ L=.18u  
+ W=.2u         
M_U4_U49_M4         X1 U4_N308687 MSB MSB CMOSP  
+ L=.18u  
+ W=.2u         
M_U4_U49_M15         U4_U49_N66527 U4_N308767 0 0 CMOSN  
+ L=.18u  
+ W=.18u         
M_U4_U33_M5         U4_N265640 0 MSB MSB CMOSP  
+ L=.18u  
+ W=.2u         
M_U4_U33_M6         U4_N265640 0 U4_U33_N39991 0 CMOSN  
+ L=.18u  
+ W=.18u         
M_U4_U33_M2         U4_U33_N39991 MSB 0 0 CMOSN  
+ L=.18u  
+ W=.18u         
M_U4_U33_M4         U4_N265640 MSB MSB MSB CMOSP  
+ L=.18u  
+ W=.2u         
M_U4_U3_M5         5SB 0 MSB MSB CMOSP  
+ L=.18u  
+ W=.2u         
M_U4_U3_M6         5SB 0 U4_U3_N39991 0 CMOSN  
+ L=.18u  
+ W=.18u         
M_U4_U3_M2         U4_U3_N39991 U4_N245880 0 0 CMOSN  
+ L=.18u  
+ W=.18u         
M_U4_U3_M4         5SB U4_N245880 MSB MSB CMOSP  
+ L=.18u  
+ W=.2u         
M_U4_U5_M5         U4_N245638 0 MSB MSB CMOSP  
+ L=.18u  
+ W=.2u         
M_U4_U5_M6         U4_N245638 0 U4_U5_N39991 0 CMOSN  
+ L=.18u  
+ W=.18u         
M_U4_U5_M2         U4_U5_N39991 MSB 0 0 CMOSN  
+ L=.18u  
+ W=.18u         
M_U4_U5_M4         U4_N245638 MSB MSB MSB CMOSP  
+ L=.18u  
+ W=.2u         
M_U4_U69_M5         U4_N312294 0 MSB MSB CMOSP  
+ L=.18u  
+ W=.2u         
M_U4_U69_M6         U4_N312294 0 U4_U69_N39991 0 CMOSN  
+ L=.18u  
+ W=.18u         
M_U4_U69_M2         U4_U69_N39991 MSB 0 0 CMOSN  
+ L=.18u  
+ W=.18u         
M_U4_U69_M4         U4_N312294 MSB MSB MSB CMOSP  
+ L=.18u  
+ W=.2u         
M_U4_U42_M5         U4_N308675 -V2 MSB MSB CMOSP  
+ L=.18u  
+ W=.2u         
M_U4_U42_M6         U4_N308675 -V2 U4_U42_N39991 0 CMOSN  
+ L=.18u  
+ W=.18u         
M_U4_U42_M2         U4_U42_N39991 N163011 0 0 CMOSN  
+ L=.18u  
+ W=.18u         
M_U4_U42_M4         U4_N308675 N163011 MSB MSB CMOSP  
+ L=.18u  
+ W=.2u         
M_U4_U16_M5         U4_N246454 0 MSB MSB CMOSP  
+ L=.18u  
+ W=.2u         
M_U4_U16_M6         U4_N246454 0 U4_U16_N39991 0 CMOSN  
+ L=.18u  
+ W=.18u         
M_U4_U16_M2         U4_U16_N39991 MSB 0 0 CMOSN  
+ L=.18u  
+ W=.18u         
M_U4_U16_M4         U4_N246454 MSB MSB MSB CMOSP  
+ L=.18u  
+ W=.2u         
M_U4_U59_M5         U4_N309897 0 MSB MSB CMOSP  
+ L=.18u  
+ W=.2u         
M_U4_U59_M6         U4_N309897 0 U4_U59_N39991 0 CMOSN  
+ L=.18u  
+ W=.18u         
M_U4_U59_M2         U4_U59_N39991 MSB 0 0 CMOSN  
+ L=.18u  
+ W=.18u         
M_U4_U59_M4         U4_N309897 MSB MSB MSB CMOSP  
+ L=.18u  
+ W=.2u         
M_U4_U79_M5         U4_N312956 X2 MSB MSB CMOSP  
+ L=.18u  
+ W=.2u         
M_U4_U79_M6         U4_N312956 X2 0 0 CMOSN  
+ L=.18u  
+ W=.18u         
M_U4_U38_M5         U4_N266058 0 MSB MSB CMOSP  
+ L=.18u  
+ W=.2u         
M_U4_U38_M6         U4_N266058 0 U4_U38_N39991 0 CMOSN  
+ L=.18u  
+ W=.18u         
M_U4_U38_M2         U4_U38_N39991 MSB 0 0 CMOSN  
+ L=.18u  
+ W=.18u         
M_U4_U38_M4         U4_N266058 MSB MSB MSB CMOSP  
+ L=.18u  
+ W=.2u         
M_U4_U34_M5         U4_N266782 0 MSB MSB CMOSP  
+ L=.18u  
+ W=.2u         
M_U4_U34_M6         U4_N266782 0 U4_U34_N39991 0 CMOSN  
+ L=.18u  
+ W=.18u         
M_U4_U34_M2         U4_U34_N39991 MSB 0 0 CMOSN  
+ L=.18u  
+ W=.18u         
M_U4_U34_M4         U4_N266782 MSB MSB MSB CMOSP  
+ L=.18u  
+ W=.2u         
M_U4_U70_M5         U4_N312298 0 MSB MSB CMOSP  
+ L=.18u  
+ W=.2u         
M_U4_U70_M6         U4_N312298 0 U4_U70_N39991 0 CMOSN  
+ L=.18u  
+ W=.18u         
M_U4_U70_M2         U4_U70_N39991 MSB 0 0 CMOSN  
+ L=.18u  
+ W=.18u         
M_U4_U70_M4         U4_N312298 MSB MSB MSB CMOSP  
+ L=.18u  
+ W=.2u         
M_U4_U66_M16         X3 U4_N309909 MSB MSB CMOSP  
+ L=.18u  
+ W=.2u         
M_U4_U66_M5         X3 U4_N309933 MSB MSB CMOSP  
+ L=.18u  
+ W=.2u         
M_U4_U66_M11         X3 U4_N309897 MSB MSB CMOSP  
+ L=.18u  
+ W=.2u         
M_U4_U66_M9         X3 U4_N309917 MSB MSB CMOSP  
+ L=.18u  
+ W=.2u         
M_U4_U66_M1         X3 U4_N309897 U4_U66_N67495 0 CMOSN  
+ L=.18u  
+ W=.18u         
M_U4_U66_M6         U4_U66_N66385 U4_N309905 U4_U66_N66425 0 CMOSN  
+ L=.18u  
+ W=.18u         
M_U4_U66_M7         U4_U66_N66425 U4_N309909 U4_U66_N66937 0 CMOSN  
+ L=.18u  
+ W=.18u         
M_U4_U66_M12         X3 U4_N310243 MSB MSB CMOSP  
+ L=.18u  
+ W=.2u         
M_U4_U66_M2         U4_U66_N67495 U4_N309901 U4_U66_N66385 0 CMOSN  
+ L=.18u  
+ W=.18u         
M_U4_U66_M13         U4_U66_N67207 U4_N309917 U4_U66_N67213 0 CMOSN  
+ L=.18u  
+ W=.18u         
M_U4_U66_M10         U4_U66_N66937 U4_N310243 U4_U66_N67207 0 CMOSN  
+ L=.18u  
+ W=.18u         
M_U4_U66_M3         X3 U4_N309901 MSB MSB CMOSP  
+ L=.18u  
+ W=.2u         
M_U4_U66_M14         U4_U66_N67213 U4_N309925 U4_U66_N66527 0 CMOSN  
+ L=.18u  
+ W=.18u         
M_U4_U66_M8         X3 U4_N309925 MSB MSB CMOSP  
+ L=.18u  
+ W=.2u         
M_U4_U66_M4         X3 U4_N309905 MSB MSB CMOSP  
+ L=.18u  
+ W=.2u         
M_U4_U66_M15         U4_U66_N66527 U4_N309933 0 0 CMOSN  
+ L=.18u  
+ W=.18u         
M_U4_U43_M5         U4_N308687 -V4 MSB MSB CMOSP  
+ L=.18u  
+ W=.2u         
M_U4_U43_M6         U4_N308687 -V4 U4_U43_N39991 0 CMOSN  
+ L=.18u  
+ W=.18u         
M_U4_U43_M2         U4_U43_N39991 N163089 0 0 CMOSN  
+ L=.18u  
+ W=.18u         
M_U4_U43_M4         U4_N308687 N163089 MSB MSB CMOSP  
+ L=.18u  
+ W=.2u         
M_U4_U2_M5         U4_N245880 0 MSB MSB CMOSP  
+ L=.18u  
+ W=.2u         
M_U4_U2_M6         U4_N245880 0 U4_U2_N39991 0 CMOSN  
+ L=.18u  
+ W=.18u         
M_U4_U2_M2         U4_U2_N39991 MSB 0 0 CMOSN  
+ L=.18u  
+ W=.18u         
M_U4_U2_M4         U4_N245880 MSB MSB MSB CMOSP  
+ L=.18u  
+ W=.2u         
M_U4_U6_M5         U4_N245652 0 MSB MSB CMOSP  
+ L=.18u  
+ W=.2u         
M_U4_U6_M6         U4_N245652 0 U4_U6_N39991 0 CMOSN  
+ L=.18u  
+ W=.18u         
M_U4_U6_M2         U4_U6_N39991 MSB 0 0 CMOSN  
+ L=.18u  
+ W=.18u         
M_U4_U6_M4         U4_N245652 MSB MSB MSB CMOSP  
+ L=.18u  
+ W=.2u         
M_U4_U60_M5         U4_N309901 0 MSB MSB CMOSP  
+ L=.18u  
+ W=.2u         
M_U4_U60_M6         U4_N309901 0 U4_U60_N39991 0 CMOSN  
+ L=.18u  
+ W=.18u         
M_U4_U60_M2         U4_U60_N39991 MSB 0 0 CMOSN  
+ L=.18u  
+ W=.18u         
M_U4_U60_M4         U4_N309901 MSB MSB MSB CMOSP  
+ L=.18u  
+ W=.2u         
M_U4_U80_M5         U4_N312948 X1 MSB MSB CMOSP  
+ L=.18u  
+ W=.2u         
M_U4_U80_M6         U4_N312948 X1 0 0 CMOSN  
+ L=.18u  
+ W=.18u         
M_U4_U17_M16         U4_N245874 U4_N246528 MSB MSB CMOSP  
+ L=.18u  
+ W=.2u         
M_U4_U17_M5         U4_N245874 U4_N246454 MSB MSB CMOSP  
+ L=.18u  
+ W=.2u         
M_U4_U17_M11         U4_N245874 -V4 MSB MSB CMOSP  
+ L=.18u  
+ W=.2u         
M_U4_U17_M9         U4_N245874 U4_N246474 MSB MSB CMOSP  
+ L=.18u  
+ W=.2u         
M_U4_U17_M1         U4_N245874 -V4 U4_U17_N67495 0 CMOSN  
+ L=.18u  
+ W=.18u         
M_U4_U17_M6         U4_U17_N66385 U4_N246510 U4_U17_N66425 0 CMOSN  
+ L=.18u  
+ W=.18u         
M_U4_U17_M7         U4_U17_N66425 U4_N246528 U4_U17_N66937 0 CMOSN  
+ L=.18u  
+ W=.18u         
M_U4_U17_M12         U4_N245874 U4_N246486 MSB MSB CMOSP  
+ L=.18u  
+ W=.2u         
M_U4_U17_M2         U4_U17_N67495 U4_N246498 U4_U17_N66385 0 CMOSN  
+ L=.18u  
+ W=.18u         
M_U4_U17_M13         U4_U17_N67207 U4_N246474 U4_U17_N67213 0 CMOSN  
+ L=.18u  
+ W=.18u         
M_U4_U17_M10         U4_U17_N66937 U4_N246486 U4_U17_N67207 0 CMOSN  
+ L=.18u  
+ W=.18u         
M_U4_U17_M3         U4_N245874 U4_N246498 MSB MSB CMOSP  
+ L=.18u  
+ W=.2u         
M_U4_U17_M14         U4_U17_N67213 U4_N246462 U4_U17_N66527 0 CMOSN  
+ L=.18u  
+ W=.18u         
M_U4_U17_M8         U4_N245874 U4_N246462 MSB MSB CMOSP  
+ L=.18u  
+ W=.2u         
M_U4_U17_M4         U4_N245874 U4_N246510 MSB MSB CMOSP  
+ L=.18u  
+ W=.2u         
M_U4_U17_M15         U4_U17_N66527 U4_N246454 0 0 CMOSN  
+ L=.18u  
+ W=.18u         
M_U4_U35_M5         U4_N265840 0 MSB MSB CMOSP  
+ L=.18u  
+ W=.2u         
M_U4_U35_M6         U4_N265840 0 U4_U35_N39991 0 CMOSN  
+ L=.18u  
+ W=.18u         
M_U4_U35_M2         U4_U35_N39991 MSB 0 0 CMOSN  
+ L=.18u  
+ W=.18u         
M_U4_U35_M4         U4_N265840 MSB MSB MSB CMOSP  
+ L=.18u  
+ W=.2u         
M_U4_U71_M5         U4_N312302 0 MSB MSB CMOSP  
+ L=.18u  
+ W=.2u         
M_U4_U71_M6         U4_N312302 0 U4_U71_N39991 0 CMOSN  
+ L=.18u  
+ W=.18u         
M_U4_U71_M2         U4_U71_N39991 MSB 0 0 CMOSN  
+ L=.18u  
+ W=.18u         
M_U4_U71_M4         U4_N312302 MSB MSB MSB CMOSP  
+ L=.18u  
+ W=.2u         
M_U4_U44_M5         U4_N308739 -V6 MSB MSB CMOSP  
+ L=.18u  
+ W=.2u         
M_U4_U44_M6         U4_N308739 -V6 U4_U44_N39991 0 CMOSN  
+ L=.18u  
+ W=.18u         
M_U4_U44_M2         U4_U44_N39991 N163251 0 0 CMOSN  
+ L=.18u  
+ W=.18u         
M_U4_U44_M4         U4_N308739 N163251 MSB MSB CMOSP  
+ L=.18u  
+ W=.2u         
M_U4_U61_M5         U4_N309905 0 MSB MSB CMOSP  
+ L=.18u  
+ W=.2u         
M_U4_U61_M6         U4_N309905 0 U4_U61_N39991 0 CMOSN  
+ L=.18u  
+ W=.18u         
M_U4_U61_M2         U4_U61_N39991 MSB 0 0 CMOSN  
+ L=.18u  
+ W=.18u         
M_U4_U61_M4         U4_N309905 MSB MSB MSB CMOSP  
+ L=.18u  
+ W=.2u         
M_U4_U18_M5         U4_N246440 U4_N245874 MSB MSB CMOSP  
+ L=.18u  
+ W=.2u         
M_U4_U18_M6         U4_N246440 U4_N245874 0 0 CMOSN  
+ L=.18u  
+ W=.18u         
M_U4_U76_M5         U4_N312326 0 MSB MSB CMOSP  
+ L=.18u  
+ W=.2u         
M_U4_U76_M6         U4_N312326 0 U4_U76_N39991 0 CMOSN  
+ L=.18u  
+ W=.18u         
M_U4_U76_M2         U4_U76_N39991 MSB 0 0 CMOSN  
+ L=.18u  
+ W=.18u         
M_U4_U76_M4         U4_N312326 MSB MSB MSB CMOSP  
+ L=.18u  
+ W=.2u         
M_U4_U72_M5         U4_N312618 0 MSB MSB CMOSP  
+ L=.18u  
+ W=.2u         
M_U4_U72_M6         U4_N312618 0 U4_U72_N39991 0 CMOSN  
+ L=.18u  
+ W=.18u         
M_U4_U72_M2         U4_U72_N39991 MSB 0 0 CMOSN  
+ L=.18u  
+ W=.18u         
M_U4_U72_M4         U4_N312618 MSB MSB MSB CMOSP  
+ L=.18u  
+ W=.2u         
M_U4_U45_M5         U4_N308919 -V8 MSB MSB CMOSP  
+ L=.18u  
+ W=.2u         
M_U4_U45_M6         U4_N308919 -V8 U4_U45_N39991 0 CMOSN  
+ L=.18u  
+ W=.18u         
M_U4_U45_M2         U4_U45_N39991 N163335 0 0 CMOSN  
+ L=.18u  
+ W=.18u         
M_U4_U45_M4         U4_N308919 N163335 MSB MSB CMOSP  
+ L=.18u  
+ W=.2u         
M_U4_U36_M5         U4_N265940 0 MSB MSB CMOSP  
+ L=.18u  
+ W=.2u         
M_U4_U36_M6         U4_N265940 0 U4_U36_N39991 0 CMOSN  
+ L=.18u  
+ W=.18u         
M_U4_U36_M2         U4_U36_N39991 MSB 0 0 CMOSN  
+ L=.18u  
+ W=.18u         
M_U4_U36_M4         U4_N265940 MSB MSB MSB CMOSP  
+ L=.18u  
+ W=.2u         
M_U4_U21_M5         U4_N266018 -V4 MSB MSB CMOSP  
+ L=.18u  
+ W=.2u         
M_U4_U21_M6         U4_N266018 -V4 U4_U21_N39991 0 CMOSN  
+ L=.18u  
+ W=.18u         
M_U4_U21_M2         U4_U21_N39991 N163169 0 0 CMOSN  
+ L=.18u  
+ W=.18u         
M_U4_U21_M4         U4_N266018 N163169 MSB MSB CMOSP  
+ L=.18u  
+ W=.2u         
M_U4_U62_M5         U4_N309909 0 MSB MSB CMOSP  
+ L=.18u  
+ W=.2u         
M_U4_U62_M6         U4_N309909 0 U4_U62_N39991 0 CMOSN  
+ L=.18u  
+ W=.18u         
M_U4_U62_M2         U4_U62_N39991 MSB 0 0 CMOSN  
+ L=.18u  
+ W=.18u         
M_U4_U62_M4         U4_N309909 MSB MSB MSB CMOSP  
+ L=.18u  
+ W=.2u         
M_U4_U81_M7         LSB U4_N312948 MSB MSB CMOSP  
+ L=.18u  
+ W=.2u         
M_U4_U81_M8         LSB U4_N312956 MSB MSB CMOSP  
+ L=.18u  
+ W=.2u         
M_U4_U81_M12         LSB U4_N312968 MSB MSB CMOSP  
+ L=.18u  
+ W=.2u         
M_U4_U81_M9         LSB U4_N312976 MSB MSB CMOSP  
+ L=.18u  
+ W=.2u         
M_U4_U81_M1         LSB U4_N312948 U4_U81_N88766 0 CMOSN  
+ L=.18u  
+ W=.18u         
M_U4_U81_M10         U4_U81_N88906 U4_N312976 U4_U81_N88946 0 CMOSN  
+ L=.18u  
+ W=.18u         
M_U4_U81_M3         U4_U81_N88766 U4_N312956 U4_U81_N88906 0 CMOSN  
+ L=.18u  
+ W=.18u         
M_U4_U81_M11         U4_U81_N88946 U4_N312968 0 0 CMOSN  
+ L=.18u  
+ W=.18u         
M_U4_U50_M5         U4_N309027 0 MSB MSB CMOSP  
+ L=.18u  
+ W=.2u         
M_U4_U50_M6         U4_N309027 0 U4_U50_N39991 0 CMOSN  
+ L=.18u  
+ W=.18u         
M_U4_U50_M2         U4_U50_N39991 MSB 0 0 CMOSN  
+ L=.18u  
+ W=.18u         
M_U4_U50_M4         U4_N309027 MSB MSB MSB CMOSP  
+ L=.18u  
+ W=.2u         
M_U4_U46_M5         U4_N308811 -V10 MSB MSB CMOSP  
+ L=.18u  
+ W=.2u         
M_U4_U46_M6         U4_N308811 -V10 U4_U46_N39991 0 CMOSN  
+ L=.18u  
+ W=.18u         
M_U4_U46_M2         U4_U46_N39991 N163509 0 0 CMOSN  
+ L=.18u  
+ W=.18u         
M_U4_U46_M4         U4_N308811 N163509 MSB MSB CMOSP  
+ L=.18u  
+ W=.2u         
M_U4_U19_M5         3SB U4_N246440 MSB MSB CMOSP  
+ L=.18u  
+ W=.2u         
M_U4_U19_M6         3SB U4_N246440 0 0 CMOSN  
+ L=.18u  
+ W=.18u         
M_U4_U10_M5         U4_N246498 -V8 MSB MSB CMOSP  
+ L=.18u  
+ W=.2u         
M_U4_U10_M6         U4_N246498 -V8 U4_U10_N39991 0 CMOSN  
+ L=.18u  
+ W=.18u         
M_U4_U10_M2         U4_U10_N39991 N163599 0 0 CMOSN  
+ L=.18u  
+ W=.18u         
M_U4_U10_M4         U4_N246498 N163599 MSB MSB CMOSP  
+ L=.18u  
+ W=.2u         
M_U4_U73_M5         U4_N312310 0 MSB MSB CMOSP  
+ L=.18u  
+ W=.2u         
M_U4_U73_M6         U4_N312310 0 U4_U73_N39991 0 CMOSN  
+ L=.18u  
+ W=.18u         
M_U4_U73_M2         U4_U73_N39991 MSB 0 0 CMOSN  
+ L=.18u  
+ W=.18u         
M_U4_U73_M4         U4_N312310 MSB MSB MSB CMOSP  
+ L=.18u  
+ W=.2u         
M_U4_U22_M5         U4_N266026 -V8 MSB MSB CMOSP  
+ L=.18u  
+ W=.2u         
M_U4_U22_M6         U4_N266026 -V8 U4_U22_N39991 0 CMOSN  
+ L=.18u  
+ W=.18u         
M_U4_U22_M2         U4_U22_N39991 N163421 0 0 CMOSN  
+ L=.18u  
+ W=.18u         
M_U4_U22_M4         U4_N266026 N163421 MSB MSB CMOSP  
+ L=.18u  
+ W=.2u         
M_U4_U63_M5         U4_N310243 0 MSB MSB CMOSP  
+ L=.18u  
+ W=.2u         
M_U4_U63_M6         U4_N310243 0 U4_U63_N39991 0 CMOSN  
+ L=.18u  
+ W=.18u         
M_U4_U63_M2         U4_U63_N39991 MSB 0 0 CMOSN  
+ L=.18u  
+ W=.18u         
M_U4_U63_M4         U4_N310243 MSB MSB MSB CMOSP  
+ L=.18u  
+ W=.2u         
M_U4_U29_M5         U4_N266334 U4_N266492 MSB MSB CMOSP  
+ L=.18u  
+ W=.2u         
M_U4_U29_M6         U4_N266334 U4_N266492 0 0 CMOSN  
+ L=.18u  
+ W=.18u         
M_U4_U57_M16         X2 U4_N309039 MSB MSB CMOSP  
+ L=.18u  
+ W=.2u         
M_U4_U57_M5         X2 U4_N309063 MSB MSB CMOSP  
+ L=.18u  
+ W=.2u         
M_U4_U57_M11         X2 U4_N309027 MSB MSB CMOSP  
+ L=.18u  
+ W=.2u         
M_U4_U57_M9         X2 U4_N309047 MSB MSB CMOSP  
+ L=.18u  
+ W=.2u         
M_U4_U57_M1         X2 U4_N309027 U4_U57_N67495 0 CMOSN  
+ L=.18u  
+ W=.18u         
M_U4_U57_M6         U4_U57_N66385 U4_N309035 U4_U57_N66425 0 CMOSN  
+ L=.18u  
+ W=.18u         
M_U4_U57_M7         U4_U57_N66425 U4_N309039 U4_U57_N66937 0 CMOSN  
+ L=.18u  
+ W=.18u         
M_U4_U57_M12         X2 U4_N309355 MSB MSB CMOSP  
+ L=.18u  
+ W=.2u         
M_U4_U57_M2         U4_U57_N67495 U4_N309031 U4_U57_N66385 0 CMOSN  
+ L=.18u  
+ W=.18u         
M_U4_U57_M13         U4_U57_N67207 U4_N309047 U4_U57_N67213 0 CMOSN  
+ L=.18u  
+ W=.18u         
M_U4_U57_M10         U4_U57_N66937 U4_N309355 U4_U57_N67207 0 CMOSN  
+ L=.18u  
+ W=.18u         
M_U4_U57_M3         X2 U4_N309031 MSB MSB CMOSP  
+ L=.18u  
+ W=.2u         
M_U4_U57_M14         U4_U57_N67213 U4_N309055 U4_U57_N66527 0 CMOSN  
+ L=.18u  
+ W=.18u         
M_U4_U57_M8         X2 U4_N309055 MSB MSB CMOSP  
+ L=.18u  
+ W=.2u         
M_U4_U57_M4         X2 U4_N309035 MSB MSB CMOSP  
+ L=.18u  
+ W=.2u         
M_U4_U57_M15         U4_U57_N66527 U4_N309063 0 0 CMOSN  
+ L=.18u  
+ W=.18u         
M_U4_U51_M5         U4_N309031 0 MSB MSB CMOSP  
+ L=.18u  
+ W=.2u         
M_U4_U51_M6         U4_N309031 0 U4_U51_N39991 0 CMOSN  
+ L=.18u  
+ W=.18u         
M_U4_U51_M2         U4_U51_N39991 MSB 0 0 CMOSN  
+ L=.18u  
+ W=.18u         
M_U4_U51_M4         U4_N309031 MSB MSB MSB CMOSP  
+ L=.18u  
+ W=.2u         
M_U4_U47_M5         U4_N308789 -V12 MSB MSB CMOSP  
+ L=.18u  
+ W=.2u         
M_U4_U47_M6         U4_N308789 -V12 U4_U47_N39991 0 CMOSN  
+ L=.18u  
+ W=.18u         
M_U4_U47_M2         U4_U47_N39991 N163691 0 0 CMOSN  
+ L=.18u  
+ W=.18u         
M_U4_U47_M4         U4_N308789 N163691 MSB MSB CMOSP  
+ L=.18u  
+ W=.2u         
M_U4_U11_M5         U4_N246510 0 MSB MSB CMOSP  
+ L=.18u  
+ W=.2u         
M_U4_U11_M6         U4_N246510 0 U4_U11_N39991 0 CMOSN  
+ L=.18u  
+ W=.18u         
M_U4_U11_M2         U4_U11_N39991 MSB 0 0 CMOSN  
+ L=.18u  
+ W=.18u         
M_U4_U11_M4         U4_N246510 MSB MSB MSB CMOSP  
+ L=.18u  
+ W=.2u         
M_U4_U28_M16         U4_N265648 U4_N266034 MSB MSB CMOSP  
+ L=.18u  
+ W=.2u         
M_U4_U28_M5         U4_N265648 U4_N265978 MSB MSB CMOSP  
+ L=.18u  
+ W=.2u         
M_U4_U28_M11         U4_N265648 -V2 MSB MSB CMOSP  
+ L=.18u  
+ W=.2u         
M_U4_U28_M9         U4_N265648 U4_N265998 MSB MSB CMOSP  
+ L=.18u  
+ W=.2u         
M_U4_U28_M1         U4_N265648 -V2 U4_U28_N67495 0 CMOSN  
+ L=.18u  
+ W=.18u         
M_U4_U28_M6         U4_U28_N66385 U4_N266026 U4_U28_N66425 0 CMOSN  
+ L=.18u  
+ W=.18u         
M_U4_U28_M7         U4_U28_N66425 U4_N266034 U4_U28_N66937 0 CMOSN  
+ L=.18u  
+ W=.18u         
M_U4_U28_M12         U4_N265648 U4_N266006 MSB MSB CMOSP  
+ L=.18u  
+ W=.2u         
M_U4_U28_M2         U4_U28_N67495 U4_N266018 U4_U28_N66385 0 CMOSN  
+ L=.18u  
+ W=.18u         
M_U4_U28_M13         U4_U28_N67207 U4_N265998 U4_U28_N67213 0 CMOSN  
+ L=.18u  
+ W=.18u         
M_U4_U28_M10         U4_U28_N66937 U4_N266006 U4_U28_N67207 0 CMOSN  
+ L=.18u  
+ W=.18u         
M_U4_U28_M3         U4_N265648 U4_N266018 MSB MSB CMOSP  
+ L=.18u  
+ W=.2u         
M_U4_U28_M14         U4_U28_N67213 U4_N265986 U4_U28_N66527 0 CMOSN  
+ L=.18u  
+ W=.18u         
M_U4_U28_M8         U4_N265648 U4_N265986 MSB MSB CMOSP  
+ L=.18u  
+ W=.2u         
M_U4_U28_M4         U4_N265648 U4_N266026 MSB MSB CMOSP  
+ L=.18u  
+ W=.2u         
M_U4_U28_M15         U4_U28_N66527 U4_N265978 0 0 CMOSN  
+ L=.18u  
+ W=.18u         
M_U4_U74_M5         U4_N312318 0 MSB MSB CMOSP  
+ L=.18u  
+ W=.2u         
M_U4_U74_M6         U4_N312318 0 U4_U74_N39991 0 CMOSN  
+ L=.18u  
+ W=.18u         
M_U4_U74_M2         U4_U74_N39991 MSB 0 0 CMOSN  
+ L=.18u  
+ W=.18u         
M_U4_U74_M4         U4_N312318 MSB MSB MSB CMOSP  
+ L=.18u  
+ W=.2u         
M_U4_U23_M5         U4_N266034 -V12 MSB MSB CMOSP  
+ L=.18u  
+ W=.2u         
M_U4_U23_M6         U4_N266034 -V12 U4_U23_N39991 0 CMOSN  
+ L=.18u  
+ W=.18u         
M_U4_U23_M2         U4_U23_N39991 N163785 0 0 CMOSN  
+ L=.18u  
+ W=.18u         
M_U4_U23_M4         U4_N266034 N163785 MSB MSB CMOSP  
+ L=.18u  
+ W=.2u         
M_U4_U67_M5         U4_N309933 0 MSB MSB CMOSP  
+ L=.18u  
+ W=.2u         
M_U4_U67_M6         U4_N309933 0 U4_U67_N39991 0 CMOSN  
+ L=.18u  
+ W=.18u         
M_U4_U67_M2         U4_U67_N39991 MSB 0 0 CMOSN  
+ L=.18u  
+ W=.18u         
M_U4_U67_M4         U4_N309933 MSB MSB MSB CMOSP  
+ L=.18u  
+ W=.2u         
M_U4_U64_M5         U4_N309917 0 MSB MSB CMOSP  
+ L=.18u  
+ W=.2u         
M_U4_U64_M6         U4_N309917 0 U4_U64_N39991 0 CMOSN  
+ L=.18u  
+ W=.18u         
M_U4_U64_M2         U4_U64_N39991 MSB 0 0 CMOSN  
+ L=.18u  
+ W=.18u         
M_U4_U64_M4         U4_N309917 MSB MSB MSB CMOSP  
+ L=.18u  
+ W=.2u         
M_U4_U52_M5         U4_N309035 0 MSB MSB CMOSP  
+ L=.18u  
+ W=.2u         
M_U4_U52_M6         U4_N309035 0 U4_U52_N39991 0 CMOSN  
+ L=.18u  
+ W=.18u         
M_U4_U52_M2         U4_U52_N39991 MSB 0 0 CMOSN  
+ L=.18u  
+ W=.18u         
M_U4_U52_M4         U4_N309035 MSB MSB MSB CMOSP  
+ L=.18u  
+ W=.2u         
M_U4_U24_M5         U4_N266006 0 MSB MSB CMOSP  
+ L=.18u  
+ W=.2u         
M_U4_U24_M6         U4_N266006 0 U4_U24_N39991 0 CMOSN  
+ L=.18u  
+ W=.18u         
M_U4_U24_M2         U4_U24_N39991 MSB 0 0 CMOSN  
+ L=.18u  
+ W=.18u         
M_U4_U24_M4         U4_N266006 MSB MSB MSB CMOSP  
+ L=.18u  
+ W=.2u         
M_U4_U39_M5         U4_N266348 U4_N265648 MSB MSB CMOSP  
+ L=.18u  
+ W=.2u         
M_U4_U39_M6         U4_N266348 U4_N265648 0 0 CMOSN  
+ L=.18u  
+ W=.18u         
M_U4_U48_M5         U4_N308767 -V14 MSB MSB CMOSP  
+ L=.18u  
+ W=.2u         
M_U4_U48_M6         U4_N308767 -V14 U4_U48_N39991 0 CMOSN  
+ L=.18u  
+ W=.18u         
M_U4_U48_M2         U4_U48_N39991 N163881 0 0 CMOSN  
+ L=.18u  
+ W=.18u         
M_U4_U48_M4         U4_N308767 N163881 MSB MSB CMOSP  
+ L=.18u  
+ W=.2u         
M_U4_U65_M5         U4_N309925 0 MSB MSB CMOSP  
+ L=.18u  
+ W=.2u         
M_U4_U65_M6         U4_N309925 0 U4_U65_N39991 0 CMOSN  
+ L=.18u  
+ W=.18u         
M_U4_U65_M2         U4_U65_N39991 MSB 0 0 CMOSN  
+ L=.18u  
+ W=.18u         
M_U4_U65_M4         U4_N309925 MSB MSB MSB CMOSP  
+ L=.18u  
+ W=.2u         
M_U4_U12_M5         U4_N246528 0 MSB MSB CMOSP  
+ L=.18u  
+ W=.2u         
M_U4_U12_M6         U4_N246528 0 U4_U12_N39991 0 CMOSN  
+ L=.18u  
+ W=.18u         
M_U4_U12_M2         U4_U12_N39991 MSB 0 0 CMOSN  
+ L=.18u  
+ W=.18u         
M_U4_U12_M4         U4_N246528 MSB MSB MSB CMOSP  
+ L=.18u  
+ W=.2u         
M_U4_U53_M5         U4_N309039 0 MSB MSB CMOSP  
+ L=.18u  
+ W=.2u         
M_U4_U53_M6         U4_N309039 0 U4_U53_N39991 0 CMOSN  
+ L=.18u  
+ W=.18u         
M_U4_U53_M2         U4_U53_N39991 MSB 0 0 CMOSN  
+ L=.18u  
+ W=.18u         
M_U4_U53_M4         U4_N309039 MSB MSB MSB CMOSP  
+ L=.18u  
+ W=.2u         
M_U4_U25_M5         U4_N265998 0 MSB MSB CMOSP  
+ L=.18u  
+ W=.2u         
M_U4_U25_M6         U4_N265998 0 U4_U25_N39991 0 CMOSN  
+ L=.18u  
+ W=.18u         
M_U4_U25_M2         U4_U25_N39991 MSB 0 0 CMOSN  
+ L=.18u  
+ W=.18u         
M_U4_U25_M4         U4_N265998 MSB MSB MSB CMOSP  
+ L=.18u  
+ W=.2u         
M_U4_U77_M5         U4_N312968 U4_X4 MSB MSB CMOSP  
+ L=.18u  
+ W=.2u         
M_U4_U77_M6         U4_N312968 U4_X4 0 0 CMOSN  
+ L=.18u  
+ W=.18u         
M_U4_U30_M5         U4_N265628 0 MSB MSB CMOSP  
+ L=.18u  
+ W=.2u         
M_U4_U30_M6         U4_N265628 0 U4_U30_N39991 0 CMOSN  
+ L=.18u  
+ W=.18u         
M_U4_U30_M2         U4_U30_N39991 MSB 0 0 CMOSN  
+ L=.18u  
+ W=.18u         
M_U4_U30_M4         U4_N265628 MSB MSB MSB CMOSP  
+ L=.18u  
+ W=.2u         
M_U4_U13_M5         U4_N246486 0 MSB MSB CMOSP  
+ L=.18u  
+ W=.2u         
M_U4_U13_M6         U4_N246486 0 U4_U13_N39991 0 CMOSN  
+ L=.18u  
+ W=.18u         
M_U4_U13_M2         U4_U13_N39991 MSB 0 0 CMOSN  
+ L=.18u  
+ W=.18u         
M_U4_U13_M4         U4_N246486 MSB MSB MSB CMOSP  
+ L=.18u  
+ W=.2u         
M_U4_U54_M5         U4_N309355 0 MSB MSB CMOSP  
+ L=.18u  
+ W=.2u         
M_U4_U54_M6         U4_N309355 0 U4_U54_N39991 0 CMOSN  
+ L=.18u  
+ W=.18u         
M_U4_U54_M2         U4_U54_N39991 MSB 0 0 CMOSN  
+ L=.18u  
+ W=.18u         
M_U4_U54_M4         U4_N309355 MSB MSB MSB CMOSP  
+ L=.18u  
+ W=.2u         
M_U4_U58_M5         U4_N309063 0 MSB MSB CMOSP  
+ L=.18u  
+ W=.2u         
M_U4_U58_M6         U4_N309063 0 U4_U58_N39991 0 CMOSN  
+ L=.18u  
+ W=.18u         
M_U4_U58_M2         U4_U58_N39991 MSB 0 0 CMOSN  
+ L=.18u  
+ W=.18u         
M_U4_U58_M4         U4_N309063 MSB MSB MSB CMOSP  
+ L=.18u  
+ W=.2u         
M_U4_U26_M5         U4_N265986 0 MSB MSB CMOSP  
+ L=.18u  
+ W=.2u         
M_U4_U26_M6         U4_N265986 0 U4_U26_N39991 0 CMOSN  
+ L=.18u  
+ W=.18u         
M_U4_U26_M2         U4_U26_N39991 MSB 0 0 CMOSN  
+ L=.18u  
+ W=.18u         
M_U4_U26_M4         U4_N265986 MSB MSB MSB CMOSP  
+ L=.18u  
+ W=.2u         
M_U4_U37_M16         U4_N266492 U4_N265640 MSB MSB CMOSP  
+ L=.18u  
+ W=.2u         
M_U4_U37_M5         U4_N266492 U4_N266058 MSB MSB CMOSP  
+ L=.18u  
+ W=.2u         
M_U4_U37_M11         U4_N266492 U4_N265628 MSB MSB CMOSP  
+ L=.18u  
+ W=.2u         
M_U4_U37_M9         U4_N266492 U4_N265840 MSB MSB CMOSP  
+ L=.18u  
+ W=.2u         
M_U4_U37_M1         U4_N266492 U4_N265628 U4_U37_N67495 0 CMOSN  
+ L=.18u  
+ W=.18u         
M_U4_U37_M6         U4_U37_N66385 U4_N265636 U4_U37_N66425 0 CMOSN  
+ L=.18u  
+ W=.18u         
M_U4_U37_M7         U4_U37_N66425 U4_N265640 U4_U37_N66937 0 CMOSN  
+ L=.18u  
+ W=.18u         
M_U4_U37_M12         U4_N266492 U4_N266782 MSB MSB CMOSP  
+ L=.18u  
+ W=.2u         
M_U4_U37_M2         U4_U37_N67495 U4_N265632 U4_U37_N66385 0 CMOSN  
+ L=.18u  
+ W=.18u         
M_U4_U37_M13         U4_U37_N67207 U4_N265840 U4_U37_N67213 0 CMOSN  
+ L=.18u  
+ W=.18u         
M_U4_U37_M10         U4_U37_N66937 U4_N266782 U4_U37_N67207 0 CMOSN  
+ L=.18u  
+ W=.18u         
M_U4_U37_M3         U4_N266492 U4_N265632 MSB MSB CMOSP  
+ L=.18u  
+ W=.2u         
M_U4_U37_M14         U4_U37_N67213 U4_N265940 U4_U37_N66527 0 CMOSN  
+ L=.18u  
+ W=.18u         
M_U4_U37_M8         U4_N266492 U4_N265940 MSB MSB CMOSP  
+ L=.18u  
+ W=.2u         
M_U4_U37_M4         U4_N266492 U4_N265636 MSB MSB CMOSP  
+ L=.18u  
+ W=.2u         
M_U4_U37_M15         U4_U37_N66527 U4_N266058 0 0 CMOSN  
+ L=.18u  
+ W=.18u         
M_U4_U8_M7         4SB -V8 MSB MSB CMOSP  
+ L=.18u  
+ W=.2u         
M_U4_U8_M8         4SB U4_N245652 MSB MSB CMOSP  
+ L=.18u  
+ W=.2u         
M_U4_U8_M12         4SB U4_N245622 MSB MSB CMOSP  
+ L=.18u  
+ W=.2u         
M_U4_U8_M9         4SB U4_N245638 MSB MSB CMOSP  
+ L=.18u  
+ W=.2u         
M_U4_U8_M1         4SB -V8 U4_U8_N88766 0 CMOSN  
+ L=.18u  
+ W=.18u         
M_U4_U8_M10         U4_U8_N88906 U4_N245638 U4_U8_N88946 0 CMOSN  
+ L=.18u  
+ W=.18u         
M_U4_U8_M3         U4_U8_N88766 U4_N245652 U4_U8_N88906 0 CMOSN  
+ L=.18u  
+ W=.18u         
M_U4_U8_M11         U4_U8_N88946 U4_N245622 0 0 CMOSN  
+ L=.18u  
+ W=.18u         
M_U4_U31_M5         U4_N265632 0 MSB MSB CMOSP  
+ L=.18u  
+ W=.2u         
M_U4_U31_M6         U4_N265632 0 U4_U31_N39991 0 CMOSN  
+ L=.18u  
+ W=.18u         
M_U4_U31_M2         U4_U31_N39991 MSB 0 0 CMOSN  
+ L=.18u  
+ W=.18u         
M_U4_U31_M4         U4_N265632 MSB MSB MSB CMOSP  
+ L=.18u  
+ W=.2u         
M_U4_U40_M5         2SB U4_N266334 MSB MSB CMOSP  
+ L=.18u  
+ W=.2u         
M_U4_U40_M6         2SB U4_N266334 U4_U40_N39991 0 CMOSN  
+ L=.18u  
+ W=.18u         
M_U4_U40_M2         U4_U40_N39991 U4_N266348 0 0 CMOSN  
+ L=.18u  
+ W=.18u         
M_U4_U40_M4         2SB U4_N266348 MSB MSB CMOSP  
+ L=.18u  
+ W=.2u         
M_U4_U14_M5         U4_N246474 0 MSB MSB CMOSP  
+ L=.18u  
+ W=.2u         
M_U4_U14_M6         U4_N246474 0 U4_U14_N39991 0 CMOSN  
+ L=.18u  
+ W=.18u         
M_U4_U14_M2         U4_U14_N39991 MSB 0 0 CMOSN  
+ L=.18u  
+ W=.18u         
M_U4_U14_M4         U4_N246474 MSB MSB MSB CMOSP  
+ L=.18u  
+ W=.2u         
M_U4_U55_M5         U4_N309047 0 MSB MSB CMOSP  
+ L=.18u  
+ W=.2u         
M_U4_U55_M6         U4_N309047 0 U4_U55_N39991 0 CMOSN  
+ L=.18u  
+ W=.18u         
M_U4_U55_M2         U4_U55_N39991 MSB 0 0 CMOSN  
+ L=.18u  
+ W=.18u         
M_U4_U55_M4         U4_N309047 MSB MSB MSB CMOSP  
+ L=.18u  
+ W=.2u         
M_U4_U27_M5         U4_N265978 0 MSB MSB CMOSP  
+ L=.18u  
+ W=.2u         
M_U4_U27_M6         U4_N265978 0 U4_U27_N39991 0 CMOSN  
+ L=.18u  
+ W=.18u         
M_U4_U27_M2         U4_U27_N39991 MSB 0 0 CMOSN  
+ L=.18u  
+ W=.18u         
M_U4_U27_M4         U4_N265978 MSB MSB MSB CMOSP  
+ L=.18u  
+ W=.2u         
R_R6         LSB MSB  100k  
R_R4         3SB MSB  100k  
R_R2         5SB MSB  100k  
V_VDD         MSB 0 3.3

**** RESUMING prueba.cir ****
.END

ERROR -- Node -V1 is floating
ERROR -- Node -V2 is floating
ERROR -- Node N163011 is floating
ERROR -- Node -V4 is floating
ERROR -- Node N163089 is floating
ERROR -- Node -V6 is floating
ERROR -- Node N163251 is floating
ERROR -- Node -V8 is floating
ERROR -- Node N163335 is floating
ERROR -- Node N163169 is floating
ERROR -- Node -V10 is floating
ERROR -- Node N163509 is floating
ERROR -- Node N163599 is floating
ERROR -- Node N163421 is floating
ERROR -- Node -V12 is floating
ERROR -- Node N163691 is floating
ERROR -- Node N163785 is floating
ERROR -- Node -V14 is floating
ERROR -- Node N163881 is floating