
Circuit: * gnetlist -g spice-sdb -o i-ffd-test.sch.cir i-ffd-test.sch

Doing analysis at TEMP = 27.000000 and TNOM = 27.000000


Initial Transient Solution
--------------------------

Node                                   Voltage
----                                   -------
c                                            0
nq                                     3.29771
q                                       0.0619
vcc                                        3.3
d                                            0
x1.1.x2.2                          0.000105158
x1.1.6                                 3.29982
x1.1.7                                 3.29982
x1.1.x2.1                              2.57258
x1.1.1                                     3.3
x1.1.x6.3                            0.0013423
x1.1.8                             0.000557834
x1.1.x5.3                          0.000278898
x1.1.x4.3                             0.419812
x1.1.x3.3                              2.57237
x1.1.x1.3                               0.0308
v2#branch                                    0
v3#branch                         -3.46311e-05
v1#branch                                    0


No. of Data Rows : 34455

