
Circuit: * gnetlist -g spice-sdb -o i-flash-01.sch.cir i-flash-01.sch

Doing analysis at TEMP = 27.000000 and TNOM = 27.000000


Initial Transient Solution
--------------------------

Node                                   Voltage
----                                   -------
10                                    0.714286
8                                            1
x12.1.x2.2                         0.000105158
x12.1.6                                3.29982
vcc                                        3.3
x12.1.7                                3.29982
x12.1.x2.1                             2.57258
16                                           0
x12.1.1                                    3.3
nq3                                    3.29771
q3                                      0.0619
x12.1.x6.3                           0.0013423
x12.1.8                            0.000557835
x12.1.x5.3                         0.000278898
x12.1.x4.3                            0.419812
11                                 0.000139429
x12.1.x3.3                             2.57228
x12.1.x1.3                              0.0308
nq5                                    3.29771
q2                                      0.0619
nq4                                    3.29771
15                                 0.000139429
x7.1.5                                     3.3
x7.1.6                                0.186666
3                                          1.5
x7.1.9                                0.199095
x7.1.1                                0.314064
x7.1.4                                0.258305
x7.1.3                                 3.21972
entra                                        2
14                                    0.142857
7                                   0.00013943
x3.1.5                                     3.3
x3.1.6                                0.213236
x3.1.9                                0.170774
x3.1.1                                0.342738
x3.1.4                                 0.39025
x3.1.3                                 1.63581
6                                      1.28571
x8.1.x2.2                          0.000105158
x8.1.6                                 3.29982
x8.1.7                                 3.29982
x8.1.x2.1                              2.57258
x8.1.1                                     3.3
nq7                                    3.29771
q7                                      0.0619
x8.1.x6.3                            0.0013423
x8.1.8                             0.000557835
x8.1.x5.3                          0.000278898
x8.1.x4.3                             0.419812
2                                  0.000181809
x8.1.x3.3                              2.57225
x8.1.x1.3                               0.0308
q5                                      0.0619
nq6                                    3.29771
x13.1.x2.2                         0.000105158
x13.1.6                                3.29982
x13.1.7                                3.29982
x13.1.x2.1                             2.57258
x13.1.1                                    3.3
nq2                                    3.29771
x13.1.x6.3                           0.0013423
x13.1.8                            0.000557835
x13.1.x5.3                         0.000278898
x13.1.x4.3                            0.419812
13                                 0.000139429
x13.1.x3.3                             2.57228
x13.1.x1.3                              0.0308
9                                  0.000139429
x4.1.5                                     3.3
x4.1.6                                0.187618
x4.1.9                                0.190343
x4.1.1                                0.315087
x4.1.4                                0.297233
x4.1.3                                 2.18375
q6                                      0.0619
4                                      1.57143
1                                      1.85714
17                                           2
12                                    0.428571
x14.1.x2.2                         0.000105158
x14.1.6                                3.29982
x14.1.7                                3.29982
x14.1.x2.1                             2.57258
x14.1.1                                    3.3
nq1                                    3.29771
q1                                      0.0619
x14.1.x6.3                           0.0013423
x14.1.8                            0.000557835
x14.1.x5.3                         0.000278898
x14.1.x4.3                            0.419812
x14.1.x3.3                             2.57228
x14.1.x1.3                              0.0308
x10.1.x2.2                         0.000105158
x10.1.6                                3.29982
x10.1.7                                3.29982
x10.1.x2.1                             2.57258
x10.1.1                                    3.3
x10.1.x6.3                           0.0013423
x10.1.8                            0.000557835
x10.1.x5.3                         0.000278898
x10.1.x4.3                            0.419812
x10.1.x3.3                             2.57228
x10.1.x1.3                              0.0308
x9.1.x2.2                          0.000105158
x9.1.6                                 3.29982
x9.1.7                                 3.29982
x9.1.x2.1                              2.57258
x9.1.1                                     3.3
x9.1.x6.3                            0.0013423
x9.1.8                             0.000557835
x9.1.x5.3                          0.000278898
x9.1.x4.3                             0.419812
5                                  0.000139797
x9.1.x3.3                              2.57228
x9.1.x1.3                               0.0308
x5.1.5                                     3.3
x5.1.6                                  0.1867
x5.1.9                                0.195254
x5.1.1                                  0.3141
x5.1.4                                0.275194
x5.1.3                                 2.59436
x1.1.5                                 3.26894
x1.1.6                                0.382486
x1.1.9                             0.000202757
x1.1.1                                0.533049
x1.1.4                                 2.39672
x1.1.3                                 0.58634
x11.1.x2.2                         0.000105158
x11.1.6                                3.29982
x11.1.7                                3.29982
x11.1.x2.1                             2.57258
x11.1.1                                    3.3
q4                                      0.0619
x11.1.x6.3                           0.0013423
x11.1.8                            0.000557835
x11.1.x5.3                         0.000278898
x11.1.x4.3                            0.419812
x11.1.x3.3                             2.57228
x11.1.x1.3                              0.0308
x6.1.5                                     3.3
x6.1.6                                0.186667
x6.1.9                                   0.198
x6.1.1                                0.314065
x6.1.4                                0.263088
x6.1.3                                 2.99453
x2.1.5                                 3.29969
x2.1.6                                0.296236
x2.1.9                               0.0120823
x2.1.1                                0.434021
x2.1.4                                 1.79427
x2.1.3                                0.964812
v1#branch                         -2.85714e-05
v4#branch                         -0.000290777
v5#branch                                    0
v2#branch                                    0
v3#branch                                    0


No. of Data Rows : 14210

