
Circuit: * gnetlist -gspice-sdb -o i-flash-01.sch.cir i-flash-01.sch

Doing analysis at TEMP = 27.000000 and TNOM = 27.000000


Initial Transient Solution
--------------------------

Node                                   Voltage
----                                   -------
msb                                 0.00117223
x12.1.x2.2                            0.368285
x12.1.6                            0.000936153
vcc                                        3.3
x12.1.7                                    3.3
x12.1.x2.1                             2.91258
clck                                         0
x12.1.1                                3.29982
nq3                                0.000557837
q3                                     3.29982
x12.1.x6.3                         0.000278899
x12.1.8                                3.29888
x12.1.x5.3                         0.000659902
x12.1.x4.3                             2.57173
d3                                     3.19868
x12.1.x3.3                         0.000474327
x12.1.x1.3                             2.57201
ssb                                 0.00116945
lsb                                 0.00344479
d1                                     3.18745
x7.1.5                                0.519094
x7.1.6                                0.109412
1                                            1
x7.1.9                                0.510959
x7.1.1                                 2.45792
x7.1.4                                 1.81749
x7.1.3                                 1.63685
entra                                      0.7
t1                                     1.14286
d5                                     3.19941
x3.1.5                                0.489755
x3.1.6                                0.967234
x3.1.9                                0.485097
x3.1.1                                 3.23548
x3.1.4                                 1.81759
x3.1.3                                 1.60261
t5                                     2.28571
t3                                     1.71429
t4                                           2
x13.1.x2.2                            0.368282
x13.1.6                            0.000940232
x13.1.7                                    3.3
x13.1.x2.1                             2.91258
x13.1.1                                3.29982
nq2                                    3.29888
q2                                 0.000560507
x13.1.x6.3                         0.000656971
x13.1.8                                3.29888
x13.1.x5.3                         0.000659933
x13.1.x4.3                             2.57173
d2                                     3.19795
x13.1.x3.3                          0.00047644
x13.1.x1.3                         0.000280275
x8.1.x2.2                              0.36829
x8.1.6                             0.000928267
x8.1.7                                     3.3
x8.1.x2.1                              2.91258
x8.1.1                                 3.29982
nq7                                    3.29883
q7                                 0.000560632
x8.1.x6.3                          0.000656887
x8.1.8                                 3.29888
x8.1.x5.3                          0.000659841
x8.1.x4.3                              2.57173
d7                                     3.20011
x8.1.x3.3                          0.000470241
x8.1.x1.3                          0.000280339
d4                                     3.19907
x4.1.5                                0.490628
x4.1.6                                0.745608
x4.1.9                                0.485965
x4.1.1                                 3.23433
x4.1.4                                 1.81758
x4.1.3                                 1.60376
3                                            1
t6                                     2.57143
t7                                     2.85714
2                                            3
t2                                     1.42857
x14.1.x2.2                            0.368241
x14.1.6                             0.00100137
x14.1.7                                    3.3
x14.1.x2.1                             2.91254
x14.1.1                                3.29982
nq1                                    3.29888
q1                                 0.000560507
x14.1.x6.3                         0.000656971
x14.1.8                                3.29888
x14.1.x5.3                         0.000660407
x14.1.x4.3                             2.57173
x14.1.x3.3                         0.000508137
x14.1.x1.3                         0.000280275
x10.1.x2.2                            0.368288
x10.1.6                            0.000932118
x10.1.7                                    3.3
x10.1.x2.1                             2.91258
x10.1.1                                3.29982
nq5                                    3.29888
q5                                 0.000560507
x10.1.x6.3                         0.000656971
x10.1.8                                3.29888
x10.1.x5.3                          0.00065987
x10.1.x4.3                             2.57173
x10.1.x3.3                         0.000472236
x10.1.x1.3                         0.000280275
x9.1.x2.2                             0.368289
x9.1.6                             0.000930198
x9.1.7                                     3.3
x9.1.x2.1                              2.91258
x9.1.1                                 3.29982
nq6                                    3.29888
q6                                 0.000560507
x9.1.x6.3                          0.000656971
x9.1.8                                 3.29888
x9.1.x5.3                          0.000659856
x9.1.x4.3                              2.57173
d6                                     3.19976
x9.1.x3.3                          0.000471241
x9.1.x1.3                          0.000280275
x5.1.5                                0.491595
x5.1.6                                0.527239
x5.1.9                                0.486821
x5.1.1                                 3.18851
x5.1.4                                 1.81758
x5.1.3                                 1.60489
x1.1.5                                0.487982
x1.1.6                                 1.41819
x1.1.9                                 0.48333
x1.1.1                                 3.23552
x1.1.4                                 1.81759
x1.1.3                                 1.60026
x15.1.5                                    3.3
x15.1.x1.1.13                         0.360217
x15.1.x1.1.1                           2.91224
x15.1.x1.1.12                         0.360217
x15.1.x1.1.11                         0.360218
x15.1.x1.1.5                          0.360218
nq4                                    3.29887
x15.1.x1.1.3                           2.84829
x15.1.6                                    3.3
x15.1.x2.1.13                        0.0282453
x15.1.x2.1.1                           2.98536
x15.1.x2.1.12                        0.0822374
x15.1.x2.1.11                         0.445519
x15.1.x2.1.5                          0.445519
x15.1.x2.1.3                           2.93209
x15.1.x5.1.11                        0.0292041
x15.1.x5.1.10                        0.0883758
x15.1.x5.1.5                          0.499311
x15.1.1                                    3.3
x15.1.x5.1.3                          0.499312
x15.1.x8.1.10                      0.000860839
x15.1.9                                    3.3
x15.1.x8.1.5                        0.00172192
x15.1.8                                    3.3
x15.1.x8.1.3                        0.00258324
x15.1.x4.1.13                        0.0153493
x15.1.x4.1.1                          0.531061
x15.1.x4.1.12                        0.0354663
x15.1.x4.1.11                        0.0647733
x15.1.x4.1.5                          0.123302
q4                                  0.00117223
x15.1.x4.1.3                          0.123302
x15.1.2                                3.29982
x15.1.x6.1.3                           2.57137
x15.1.x7.1.3                       0.000584684
x15.1.x3.1.13                        0.0281749
x15.1.x3.1.1                           2.98326
x15.1.x3.1.12                        0.0818325
x15.1.x3.1.11                         0.441871
x15.1.x3.1.5                           2.90122
x15.1.x3.1.3                           2.92968
x11.1.x2.2                            0.368286
x11.1.6                            0.000934027
x11.1.7                                    3.3
x11.1.x2.1                             2.91258
x11.1.1                                3.29982
x11.1.x6.3                         0.000661701
x11.1.8                                3.29888
x11.1.x5.3                         0.000659885
x11.1.x4.3                             2.57173
x11.1.x3.3                         0.000473225
x11.1.x1.3                         0.000586131
x6.1.5                                0.493438
x6.1.6                                0.312908
x6.1.9                                0.487694
x6.1.1                                 2.86663
x6.1.4                                 1.81758
x6.1.3                                 1.60605
x2.1.5                                0.488873
x2.1.6                                 1.19157
x2.1.9                                0.484218
x2.1.1                                 3.23552
x2.1.4                                 1.81759
x2.1.3                                 1.60144
v1#branch                         -2.85714e-05
v4#branch                         -0.000405067
v5#branch                                    0
v6#branch                          2.85714e-05
v2#branch                                    0
v3#branch                                    0


No. of Data Rows : 72

