
Circuit: * gnetlist -g spice-sdb -o i-flash-01.sch.cir i-flash-01.sch

