
**** 10/08/09 20:41:01 ******* PSpice 10.5.0 (Jan 2005) ******* ID# 0 ********

 ** Profile: "FFD-bias S-NAND-2"  [ D:\Documents\TESIS\TRUNK\Design\I-FFD\I-FFD-PSpiceFiles\FFD\bias S-NAND-2.sim ] 


 ****     CIRCUIT DESCRIPTION


******************************************************************************




** Creating circuit file "bias S-NAND-2.cir" 
** WARNING: THIS AUTOMATICALLY GENERATED FILE MAY BE OVERWRITTEN BY SUBSEQUENT SIMULATIONS

*Libraries: 
* Profile Libraries :
* Local Libraries :
.LIB "../../../i-ffd-pspicefiles/i-ffd.lib" 
* From [PSPICE NETLIST] section of C:\OrCAD\OrCAD_10.5\tools\PSpice\PSpice.ini file:
.lib "nom.lib" 

*Analysis directives: 
.PROBE V(alias(*)) I(alias(*)) W(alias(*)) D(alias(*)) NOISE(alias(*)) 
.INC "..\FFD.net" 



**** INCLUDING FFD.net ****
* source I-FFD
M_FFD_NAND2_M4         FFD_N00519 FFD_N02333 N00086 N00086 MbreakP           
M_FFD_NAND2_M1         FFD_NAND2_N49611 FFD_X 0 0 MbreakN           
M_FFD_NAND2_M2         FFD_N00519 FFD_N02333 FFD_NAND2_N49611 FFD_NAND2_N49611
+  MbreakN           
M_FFD_NAND2_M3         FFD_N00519 FFD_X N00086 N00086 MbreakP           
M_FFD_NAND4_M4         N00238 FFD_X N00086 N00086 MbreakP           
M_FFD_NAND4_M1         FFD_NAND4_N49611 N00250 0 0 MbreakN           
M_FFD_NAND4_M2         N00238 FFD_X FFD_NAND4_N49611 FFD_NAND4_N49611 MbreakN  
+          
M_FFD_NAND4_M3         N00238 N00250 N00086 N00086 MbreakP           
M_FFD_NAND5_M4         N00250 N00238 N00086 N00086 MbreakP           
M_FFD_NAND5_M1         FFD_NAND5_N49611 FFD_ Y 0 0 MbreakN           
---------------------------------------------------$
ERROR -- unknown parameter
M_FFD_NAND5_M2         N00250 N00238 FFD_NAND5_N49611 FFD_NAND5_N49611 MbreakN 
+           
M_FFD_NAND5_M3         N00250 FFD_ Y N00086 N00086 MbreakP           
---------------------------------------------------$
ERROR -- unknown parameter
M_FFD_NAND_M4         FFD_N02333 FFD_ Y N00086 N00086 MbreakP           
------------------------------------------------------$
ERROR -- unknown parameter
M_FFD_NAND_M1         FFD_NAND_N49611 N00086 0 0 MbreakN           
M_FFD_NAND_M2         FFD_N02333 FFD_ Y FFD_NAND_N49611 FFD_NAND_N49611 MbreakN
------------------------------------------------------------------------$
ERROR -- unknown parameter
+            
M_FFD_NAND_M3         FFD_N02333 N00086 N00086 N00086 MbreakP           
M_FFD_NAND3_M6         FFD_ Y FFD_N02333 N00086 N00086 CMOSP           
-------------------------------------------------------$
ERROR -- unknown parameter
M_FFD_NAND3_M3         FFD_ Y FFD_X FFD_NAND3_N48931 FFD_NAND3_N48931 CMOSN    
----------------------------------------------------------------------$
ERROR -- unknown parameter
+        
M_FFD_NAND3_M4         FFD_ Y FFD_X N00086 N00086 CMOSP           
--------------------------------------------------$
ERROR -- unknown parameter
M_FFD_NAND3_M1         FFD_NAND3_N49061 FFD_N02333 0 0 CMOSN           
M_FFD_NAND3_M2         FFD_NAND3_N48931 N05175 FFD_NAND3_N49061
+  FFD_NAND3_N49061 CMOSN           
M_FFD_NAND3_M5         FFD_ Y N05175 N00086 N00086 CMOSP           
---------------------------------------------------$
ERROR -- unknown parameter
M_FFD_NAND1_M4         FFD_X FFD_N00519 N00086 N00086 MbreakP           
M_FFD_NAND1_M1         FFD_NAND1_N49611 N05175 0 0 MbreakN           
M_FFD_NAND1_M2         FFD_X FFD_N00519 FFD_NAND1_N49611 FFD_NAND1_N49611
+  MbreakN           
M_FFD_NAND1_M3         FFD_X N05175 N00086 N00086 MbreakP           
V_V4         N05175 0  
+PULSE 0 5 9m 1m 1m 9m 20m
V_V1         N00086 0 5
R_R1         N00238 0  1k  
R_R2         0 N00250  1k  

**** RESUMING "bias S-NAND-2.cir" ****
.END

WARNING -- Error in Open Alias File : D:\Documents\TESIS\TRUNK\Design\I-FFD\I-FFD-PSpiceFiles\FFD\FFD.als