
Circuit: * gnetlist -g spice-sdb -o i-decoder-001.sch.cir i-decoder-001.sch

Doing analysis at TEMP = 27.000000 and TNOM = 27.000000


No. of Data Rows : 1

Initial Transient Solution
--------------------------

Node                                   Voltage
----                                   -------
2                                            5
x1.2                                    1.7062
1                                            0
vout                                   1.18426
v2#branch                                    0
v1#branch                           -0.0293528


No. of Data Rows : 117

	Node                                  Voltage
	----                                  -------
	----	-------
	vout                             1.184262e+00
	V(1)                             0.000000e+00
	x1.2                             1.706197e+00
	V(2)                             5.000000e+00

	Source	Current
	------	-------

	v1#branch                        -2.93528e-02
	v2#branch                        0.000000e+00

 Mos3 models (Level 3 MOSfet model with Meyer capacitance model)
      model              x1:cmosp              x1:cmosn

       type                  pmos                  nmos
        vto               -0.9056                 0.786
         kp            2.9352e-05            9.6379e-05
      gamma                0.4863                0.5863
        phi                   0.6                   0.6
         rd                     0                     0
         rs                     0                     0
        cbd                     0                     0
        cbs                     0                     0
         is                 1e-14                 1e-14
         pb                  0.85                   0.8
       cgso            5.3752e-11            4.0241e-10
       cgdo            5.3752e-11            4.0241e-10
       cgbo             3.365e-10            3.6144e-10
        rsh                 104.7                 85.45
         cj            0.00048447            0.00038541
         mj                0.5027                1.1854
       cjsw            1.6457e-10             1.394e-10
       mjsw              0.217168              0.125195
        tox              2.12e-08              2.12e-08
         ld               2.2e-08             1.647e-07
         xl                     0                     0
         wd                     0                     0
         xw                     0                     0
         u0                 180.2                 591.7
         fc                   0.5                   0.5
       nsub              1.89e+16             2.747e+16
        tpg                    -1                     1
        nss                     0                     0
       vmax                373200                173300
         xj                 2e-07                 2e-07
        nfs              3.46e+12              1.98e+12
         xd           2.61574e-07           2.16968e-07
      alpha            6.8421e-14           4.70753e-14
        eta                0.1641               0.04368
      delta           1.51852e-07           6.96022e-08
      theta                0.1248               0.08122
      kappa                 9.694                0.1396
         kf                     0                     0
         af                     1                     1

 Resistor models (Simple linear resistor)
      model                     R

        rsh                     0
     narrow                     0
      short                     0
        tc1                     0
        tc2                     0
       defw                 1e-05
         kf                     0
         af                     0

 Mos3: Level 3 MOSfet model with Meyer capacitance model
     device              m.x1.mq2              m.x1.mq1
      model              x1:cmosp              x1:cmosn
         id            -0.0293498           3.72059e-08
        vgs              0.623154              0.515707
        vds              -0.30361               1.14321
        vbs              0.438892               0.69997
        von             -0.888765              0.710354
      vdsat             -0.131466             0.0705514
         rs                 104.7                 85.45
         rd                 104.7                 85.45
         gm           3.74417e-06           4.05589e-07
        gds           1.30784e-12           1.28753e-13
        gmb           4.20903e-07           6.71832e-08
        cbd                     0                     0
        cbs                     0                     0
        cgs            5.3752e-15           3.84112e-12
        cgd           1.08595e-11            4.0241e-14
        cgb           3.36352e-14           5.30275e-12

 Resistor: Simple linear resistor
     device                    r2
      model                     R
 resistance                    50
         ac                    50
      dtemp                     0
      noisy                     1
          i            -0.0236852
          p             0.0280495

 Vsource: Independent voltage source
     device                    v2                    v1
         dc                     0                     5
      acmag                     0                     0
      pulse                     0         -
                                1          
                            1e-08          
                            1e-08          
                            1e-07          
                            1e-06          
                            2e-06          
       sine                     0         -
                                1          
                            1e-08          
                            1e-08          
                            1e-07          
                            1e-06          
                            2e-06          
        sin                     0         -
                                1          
                            1e-08          
                            1e-08          
                            1e-07          
                            1e-06          
                            2e-06          
        exp                     0         -
                                1          
                            1e-08          
                            1e-08          
                            1e-07          
                            1e-06          
                            2e-06          
        pwl                     0         -
                                1          
                            1e-08          
                            1e-08          
                            1e-07          
                            1e-06          
                            2e-06          
       sffm                     0         -
                                1          
                            1e-08          
                            1e-08          
                            1e-07          
                            1e-06          
                            2e-06          
         am                     0         -
                                1          
                            1e-08          
                            1e-08          
                            1e-07          
                            1e-06          
                            2e-06          
          i          -2.45907e-08            -0.0293528
          p           2.45907e-08              0.146764

--------------------------------------------------------------------------
    * gnetlist -g spice-sdb -o i-decoder-001.sch.cir i-decoder-001.sch
               Transient Analysis Sun Oct  4 21:45:28  2009

Legend:  + = v(vout)          
--------------------------------------------------------------------------
 time       v(vout)  1.18e+00         1.21e+00         1.24e+00         1.27e+00
----------------------|----------------|----------------|----------------|
 0.000e+00  1.184e+00 . +              .                .                .
 1.000e-09  1.184e+00 . +              .                .                .
 2.000e-09  1.184e+00 . +              .                .                .
 3.000e-09  1.184e+00 . +              .                .                .
 4.000e-09  1.184e+00 . +              .                .                .
 5.000e-09  1.184e+00 . +              .                .                .
 6.000e-09  1.184e+00 . +              .                .                .
 7.000e-09  1.184e+00 . +              .                .                .
 8.000e-09  1.184e+00 . +              .                .                .
 9.000e-09  1.184e+00 . +              .                .                .
 1.000e-08  1.184e+00 . +              .                .                .
 1.100e-08  1.233e+00 .                .           +    .                .
 1.200e-08  1.249e+00 .                .                .   +            .
 1.300e-08  1.258e+00 .                .                .         +      .
 1.400e-08  1.263e+00 .                .                .           +    .
 1.500e-08  1.264e+00 .                .                .            +   .
 1.600e-08  1.264e+00 .                .                .            +   .
 1.700e-08  1.263e+00 .                .                .            +   .
 1.800e-08  1.259e+00 .                .                .          +     .
 1.900e-08  1.253e+00 .                .                .      +         .
 2.000e-08  1.246e+00 .                .                .  +             .
 2.100e-08  1.199e+00 .         +      .                .                .
 2.200e-08  1.186e+00 .  +             .                .                .
 2.300e-08  1.184e+00 . +              .                .                .
 2.400e-08  1.184e+00 . +              .                .                .
 2.500e-08  1.184e+00 . +              .                .                .
 2.600e-08  1.184e+00 . +              .                .                .
 2.700e-08  1.184e+00 . +              .                .                .
 2.800e-08  1.184e+00 . +              .                .                .
 2.900e-08  1.184e+00 . +              .                .                .
 3.000e-08  1.184e+00 . +              .                .                .
 3.100e-08  1.184e+00 . +              .                .                .
 3.200e-08  1.184e+00 . +              .                .                .
 3.300e-08  1.184e+00 . +              .                .                .
 3.400e-08  1.184e+00 . +              .                .                .
 3.500e-08  1.184e+00 . +              .                .                .
 3.600e-08  1.184e+00 . +              .                .                .
 3.700e-08  1.184e+00 . +              .                .                .
 3.800e-08  1.184e+00 . +              .                .                .
 3.900e-08  1.184e+00 . +              .                .                .
 4.000e-08  1.184e+00 . +              .                .                .
 4.100e-08  1.184e+00 . +              .                .                .
 4.200e-08  1.184e+00 . +              .                .                .
 4.300e-08  1.184e+00 . +              .                .                .
 4.400e-08  1.184e+00 . +              .                .                .
 4.500e-08  1.184e+00 . +              .                .                .
 4.600e-08  1.184e+00 . +              .                .                .
 4.700e-08  1.184e+00 . +              .                .                .
 4.800e-08  1.184e+00 . +              .                .                .
 4.900e-08  1.184e+00 . +              .                .                .
 5.000e-08  1.184e+00 . +              .                .                .
 5.100e-08  1.184e+00 . +              .                .                .
----------------------|----------------|----------------|----------------|
 time       v(vout)  1.18e+00         1.21e+00         1.24e+00         1.27e+00

 time       v(vout)  1.18e+00         1.21e+00         1.24e+00         1.27e+00
----------------------|----------------|----------------|----------------|
 5.200e-08  1.184e+00 . +              .                .                .
 5.300e-08  1.184e+00 . +              .                .                .
 5.400e-08  1.184e+00 . +              .                .                .
 5.500e-08  1.184e+00 . +              .                .                .
 5.600e-08  1.184e+00 . +              .                .                .
 5.700e-08  1.184e+00 . +              .                .                .
 5.800e-08  1.184e+00 . +              .                .                .
 5.900e-08  1.184e+00 . +              .                .                .
 6.000e-08  1.184e+00 . +              .                .                .
 6.100e-08  1.184e+00 . +              .                .                .
 6.200e-08  1.184e+00 . +              .                .                .
 6.300e-08  1.184e+00 . +              .                .                .
 6.400e-08  1.184e+00 . +              .                .                .
 6.500e-08  1.184e+00 . +              .                .                .
 6.600e-08  1.184e+00 . +              .                .                .
 6.700e-08  1.184e+00 . +              .                .                .
 6.800e-08  1.184e+00 . +              .                .                .
 6.900e-08  1.184e+00 . +              .                .                .
 7.000e-08  1.184e+00 . +              .                .                .
 7.100e-08  1.184e+00 . +              .                .                .
 7.200e-08  1.184e+00 . +              .                .                .
 7.300e-08  1.184e+00 . +              .                .                .
 7.400e-08  1.184e+00 . +              .                .                .
 7.500e-08  1.184e+00 . +              .                .                .
 7.600e-08  1.184e+00 . +              .                .                .
 7.700e-08  1.184e+00 . +              .                .                .
 7.800e-08  1.184e+00 . +              .                .                .
 7.900e-08  1.184e+00 . +              .                .                .
 8.000e-08  1.184e+00 . +              .                .                .
 8.100e-08  1.184e+00 . +              .                .                .
 8.200e-08  1.184e+00 . +              .                .                .
 8.300e-08  1.184e+00 . +              .                .                .
 8.400e-08  1.184e+00 . +              .                .                .
 8.500e-08  1.184e+00 . +              .                .                .
 8.600e-08  1.184e+00 . +              .                .                .
 8.700e-08  1.184e+00 . +              .                .                .
 8.800e-08  1.184e+00 . +              .                .                .
 8.900e-08  1.184e+00 . +              .                .                .
 9.000e-08  1.184e+00 . +              .                .                .
 9.100e-08  1.184e+00 . +              .                .                .
 9.200e-08  1.184e+00 . +              .                .                .
 9.300e-08  1.184e+00 . +              .                .                .
 9.400e-08  1.184e+00 . +              .                .                .
 9.500e-08  1.184e+00 . +              .                .                .
 9.600e-08  1.184e+00 . +              .                .                .
 9.700e-08  1.184e+00 . +              .                .                .
 9.800e-08  1.184e+00 . +              .                .                .
 9.900e-08  1.184e+00 . +              .                .                .
 1.000e-07  1.184e+00 . +              .                .                .
----------------------|----------------|----------------|----------------|
 time       v(vout)  1.18e+00         1.21e+00         1.24e+00         1.27e+00

CPU time since last call: 0.008 seconds.

Total CPU time: 0.008 seconds.

Total DRAM available = 0 bytes.
DRAM currently available = 0 bytes.
Total ngspice program size = 9.370117 MB.
Resident set size = 601.000 kB.
Shared ngspice pages = 473.000 kB.
Text (code) pages = 1.835938 MB.
Stack = 0 bytes.
Library pages = 5.935547 MB.

