
**** 08/06/09 16:21:54 ******** PSpice Lite (Oct 2008) ******** ID# 10813 ****

 ** Profile: "SCHEMATIC1-ac"  [ D:\DOCUMENTS\TESIS\TRUNK\DESIGN\I-OPAMPB-01\I-OPAMPB-01-PSpiceFiles\SCHEMATIC1\ac.sim ] 


 ****     CIRCUIT DESCRIPTION


******************************************************************************




** Creating circuit file "ac.cir" 
** WARNING: THIS AUTOMATICALLY GENERATED FILE MAY BE OVERWRITTEN BY SUBSEQUENT SIMULATIONS

*Libraries: 
* Profile Libraries :
* Local Libraries :
.LIB "../../../i-opampb-01-pspicefiles/i-opampb-01.lib" 
* From [PSPICE NETLIST] section of C:\OrCAD\OrCAD_16.2\tools\PSpice\PSpice.ini file:
.lib "nomd.lib" 

*Analysis directives: 
.AC DEC 10 10 1M
--------------$
ERROR -- Invalid value
.PROBE V(alias(*)) I(alias(*)) W(alias(*)) D(alias(*)) NOISE(alias(*)) 
.INC "..\SCHEMATIC1.net" 



**** INCLUDING SCHEMATIC1.net ****
* source I-OPAMPB-01
V_V1         N16153 0 5
C_C1         N14794 0  5p  TC=0,0 
M_M12         N14949 N15060 0 0 NMOS  
+ L=9.6u  
+ W=24.8u         
M_M4         N14794 0 N14780 N16153 PMOS  
+ L=4.8u  
+ W=420u         
M_M5         N15242 N15242 N16153 N16153 PMOS  
+ L=9.6u  
+ W=77.6u         
M_M6         N15060 N15060 N15242 N16153 PMOS  
+ L=9.6u  
+ W=101.6u         
V_V2         VIN+ 0 DC 1.3 AC 1m 
M_M7         N15060 N15060 0 0 NMOS  
+ L=9.6u  
+ W=24.8u         
M_M8         N14794 N15242 N14804 0 NMOS  
+ L=1.6u  
+ W=91.2u         
M_M3         N14780 N14786 N16153 N16153 PMOS  
+ L=4.8u  
+ W=420u         
M_M9         N14804 VIN+ N14949 0 NMOS  
+ L=1.6u  
+ W=91.2u         
M_M10         N14845 N15242 0 0 NMOS  
+ L=1.6u  
+ W=91.2u         
M_M1         N14786 N14786 N16153 N16153 PMOS  
+ L=4.8u  
+ W=420u         
V_V3         VIN- 0 DC 1.3 AC -1m 
M_M11         0 VIN- N14949 0 NMOS  
+ L=1.6u  
+ W=91.2u         
M_M2         N14845 0 N14786 N16153 PMOS  
+ L=4.8u  
+ W=420u         

**** RESUMING ac.cir ****
.END
