
Circuit: * gnetlist -g spice-sdb -o i-ffd.sch.cir i-ffd.sch

Doing analysis at TEMP = 27.000000 and TNOM = 27.000000


Initial Transient Solution
--------------------------

Node                                   Voltage
----                                   -------
d                                            0
out_2                                  4.95325
vcc                                          5
out1                                 0.0756835
x                                            5
x1.3                                 0.0378412
clck                                         0
2                                   0.00606023
x4.3                                  0.648411
y                                      4.99405
x6.3                                 0.0278839
1                                      4.99374
x3.3                                   3.96283
x5.3                                0.00302815
x2.2                                0.00352845
x2.1                                   3.97049
v1#branch                         -0.000109992
v2#branch                                    0
v3#branch                                    0


No. of Data Rows : 220204

