
Circuit: * gnetlist -g spice-sdb -o ffd.sch.cir ffd.sch

Doing analysis at TEMP = 27.000000 and TNOM = 27.000000


No. of Data Rows : 1

Doing analysis at TEMP = 27.000000 and TNOM = 27.000000


Initial Transient Solution
--------------------------

Node                                   Voltage
----                                   -------
vdd                                          5
salida                                       5
entrada                                      0
x1.3                                 0.0277144
v2#branch                                    0
v1#branch                         -7.27335e-12


No. of Data Rows : 130027

The file "v1.ps" may be printed on a postscript printer.
