
**** 01/30/10 17:14:53 ******* PSpice 10.5.0 (Jan 2005) ******* ID# 0 ********

 ** Profile: "TEST-transient"  [ D:\Documents\TESIS\TRUNK\Design\I-DECODER-001\OrCAD\I-DECODER-6BITS\i-decoder-6bits-pspicefiles\test


 ****     CIRCUIT DESCRIPTION


******************************************************************************




** Creating circuit file "transient.cir" 
** WARNING: THIS AUTOMATICALLY GENERATED FILE MAY BE OVERWRITTEN BY SUBSEQUENT SIMULATIONS

*Libraries: 
* Profile Libraries :
* Local Libraries :
* From [PSPICE NETLIST] section of C:\OrCAD\OrCAD_10.5\tools\PSpice\PSpice.ini file:
.lib "nom.lib" 

*Analysis directives: 
.TRAN  0 15u 0 
.PROBE V(alias(*)) I(alias(*)) W(alias(*)) D(alias(*)) NOISE(alias(*)) 
.INC "..\TEST.net" 



**** INCLUDING TEST.net ****
* source I-DECODER-6BITS
V_SENALES_-V2         -V2 0  
+PULSE 0 3 1.9u .1u 0 13u 15u
V_SENALES_V13         V13 0  
+PULSE 3 0 12.9u .1u 0 2u 15u
V_SENALES_-V10         -V10 0  
+PULSE 0 3 9.9u .1u 0 5u 15u
V_SENALES_V8         V8 0  
+PULSE 3 0 7.9u .1u 0 7u 15u
V_SENALES_V6         V6 0  
+PULSE 3 0 5.9u .1u 0 9u 15u
V_SENALES_V3         V3 0  
+PULSE 3 0 2.9u .1u 0 12u 15u
V_SENALES_V14         V14 0  
+PULSE 3 0 13.9u .1u 0 1u 15u
V_SENALES_V11         V11 0  
+PULSE 3 0 10.9u .1u 0 4u 15u
V_SENALES_-V8         -V8 0  
+PULSE 0 3 7.9u .1u 0 7u 15u
V_SENALES_-V6         -V6 0  
+PULSE 0 3 5.9u .1u 0 9u 15u
V_SENALES_V4         V4 0  
+PULSE 3 0 3.9u .1u 0 11u 15u
V_SENALES_V7         V7 0  
+PULSE 3 0 6.9u .1u 0 8u 15u
V_SENALES_-V14         -V14 0  
+PULSE 0 3 13.9u .1u 0 1u 15u
V_SENALES_V12         V12 0  
+PULSE 3 0 11.9u .1u 0 3u 15u
V_SENALES_V9         V9 0  
+PULSE 3 0 8.9u .1u 0 6u 15u
V_SENALES_-V4         -V4 0  
+PULSE 0 3 3.9u .1u 0 11u 15u
V_SENALES_V1         V1 0  
+PULSE 3 0 0.9u .1u 0 14u 15u
V_SENALES_V5         V5 0  
+PULSE 3 0 4.9u .1u 0 10u 15u
V_SENALES_V15         V15 0  
+PULSE 3 0 14.9u .1u 0u 0u 15u
V_SENALES_V2         V2 0  
+PULSE 3 0 1.9u .1u 0 13u 15u
V_SENALES_-V12         -V12 0  
+PULSE 0 3 11.9u .1u 0 3u 15u
V_SENALES_V10         V10 0  
+PULSE 3 0 9.9u .1u 0 5u 15u
V_V1         N02078 0 3.3
R_U1_NAND43_R1         0 0  10Meg  
M_U1_NAND43_M5         U1_N42515 0 N02078 N02078 CMOSP  
+ L=.18u  
+ W=.2u         
R_U1_NAND43_R2         0 N02078  10Meg  
M_U1_NAND43_M6         U1_N42515 0 U1_NAND43_N28600 0 CMOSN  
+ L=.18u  
+ W=.18u         
M_U1_NAND43_M2         U1_NAND43_N28600 N02078 0 0 CMOSN  
+ L=.18u  
+ W=.18u         
M_U1_NAND43_M4         U1_N42515 N02078 N02078 N02078 CMOSP  
+ L=.18u  
+ W=.2u         
R_U1_NAND21_R1         0 0  10Meg  
M_U1_NAND21_M5         U1_N22662 0 N02078 N02078 CMOSP  
+ L=.18u  
+ W=.2u         
R_U1_NAND21_R2         0 N02078  10Meg  
M_U1_NAND21_M6         U1_N22662 0 U1_NAND21_N28600 0 CMOSN  
+ L=.18u  
+ W=.18u         
M_U1_NAND21_M2         U1_NAND21_N28600 N02078 0 0 CMOSN  
+ L=.18u  
+ W=.18u         
M_U1_NAND21_M4         U1_N22662 N02078 N02078 N02078 CMOSP  
+ L=.18u  
+ W=.2u         
R_U1_NAND3_R1         0 0  10Meg  
M_U1_NAND3_M5         U1_N06203 0 N02078 N02078 CMOSP  
+ L=.18u  
+ W=.2u         
R_U1_NAND3_R2         0 N02078  10Meg  
M_U1_NAND3_M6         U1_N06203 0 U1_NAND3_N28600 0 CMOSN  
+ L=.18u  
+ W=.18u         
M_U1_NAND3_M2         U1_NAND3_N28600 N02078 0 0 CMOSN  
+ L=.18u  
+ W=.18u         
M_U1_NAND3_M4         U1_N06203 N02078 N02078 N02078 CMOSP  
+ L=.18u  
+ W=.2u         
M_U1_8NAND1_M9         U1_N31443 U1_N21286 N02078 N02078 CMOSP  
+ L=.18u  
+ W=.2u         
M_U1_8NAND1_M12         U1_N31443 U1_N21618 N02078 N02078 CMOSP  
+ L=.18u  
+ W=.2u         
M_U1_8NAND1_M1         U1_N31443 U1_N19319 U1_8NAND1_N64523 0 CMOSN  
+ L=.18u  
+ W=.18u         
M_U1_8NAND1_M15         U1_8NAND1_N64887 U1_N20646 0 0 CMOSN  
+ L=.18u  
+ W=.18u         
M_U1_8NAND1_M6         U1_8NAND1_N64745 U1_N20038 U1_8NAND1_N64785 0 CMOSN  
+ L=.18u  
+ W=.18u         
M_U1_8NAND1_M2         U1_8NAND1_N64523 U1_N19603 U1_8NAND1_N64745 0 CMOSN  
+ L=.18u  
+ W=.18u         
M_U1_8NAND1_M13         U1_8NAND1_N64235 U1_N21286 U1_8NAND1_N64241 0 CMOSN  
+ L=.18u  
+ W=.18u         
M_U1_8NAND1_M10         U1_8NAND1_N63965 U1_N21618 U1_8NAND1_N64235 0 CMOSN  
+ L=.18u  
+ W=.18u         
R_U1_8NAND1_R1         U1_N19319 0  10Meg  
M_U1_8NAND1_M16         U1_N31443 U1_N20338 N02078 N02078 CMOSP  
+ L=.18u  
+ W=.2u         
M_U1_8NAND1_M3         U1_N31443 U1_N19603 N02078 N02078 CMOSP  
+ L=.18u  
+ W=.2u         
M_U1_8NAND1_M14         U1_8NAND1_N64241 U1_N20962 U1_8NAND1_N64887 0 CMOSN  
+ L=.18u  
+ W=.18u         
R_U1_8NAND1_R2         U1_N19603 0  10Meg  
R_U1_8NAND1_R6         U1_N21286 0  10Meg  
M_U1_8NAND1_M8         U1_N31443 U1_N20962 N02078 N02078 CMOSP  
+ L=.18u  
+ W=.2u         
M_U1_8NAND1_M4         U1_N31443 U1_N20038 N02078 N02078 CMOSP  
+ L=.18u  
+ W=.2u         
R_U1_8NAND1_R3         U1_N20038 0  10Meg  
R_U1_8NAND1_R8         U1_N20646 0  10Meg  
R_U1_8NAND1_R7         U1_N20962 0  10Meg  
M_U1_8NAND1_M7         U1_8NAND1_N64785 U1_N20338 U1_8NAND1_N63965 0 CMOSN  
+ L=.18u  
+ W=.18u         
R_U1_8NAND1_R4         U1_N20338 0  10Meg  
R_U1_8NAND1_R5         U1_N21618 0  10Meg  
M_U1_8NAND1_M11         U1_N31443 U1_N19319 N02078 N02078 CMOSP  
+ L=.18u  
+ W=.2u         
M_U1_8NAND1_M5         U1_N31443 U1_N20646 N02078 N02078 CMOSP  
+ L=.18u  
+ W=.2u         
R_U1_NAND_R1         0 0  10Meg  
M_U1_NAND_M5         U1_N05087 0 N02078 N02078 CMOSP  
+ L=.18u  
+ W=.2u         
R_U1_NAND_R2         0 N02078  10Meg  
M_U1_NAND_M6         U1_N05087 0 U1_NAND_N28600 0 CMOSN  
+ L=.18u  
+ W=.18u         
M_U1_NAND_M2         U1_NAND_N28600 N02078 0 0 CMOSN  
+ L=.18u  
+ W=.18u         
M_U1_NAND_M4         U1_N05087 N02078 N02078 N02078 CMOSP  
+ L=.18u  
+ W=.2u         
R_U1_NAND44_R1         0 0  10Meg  
M_U1_NAND44_M5         U1_N42527 0 N02078 N02078 CMOSP  
+ L=.18u  
+ W=.2u         
R_U1_NAND44_R2         0 N02078  10Meg  
M_U1_NAND44_M6         U1_N42527 0 U1_NAND44_N28600 0 CMOSN  
+ L=.18u  
+ W=.18u         
M_U1_NAND44_M2         U1_NAND44_N28600 N02078 0 0 CMOSN  
+ L=.18u  
+ W=.18u         
M_U1_NAND44_M4         U1_N42527 N02078 N02078 N02078 CMOSP  
+ L=.18u  
+ W=.2u         
R_U1_NAND15_R1         0 0  10Meg  
M_U1_NAND15_M5         U1_N21618 0 N02078 N02078 CMOSP  
+ L=.18u  
+ W=.2u         
R_U1_NAND15_R2         0 N02078  10Meg  
M_U1_NAND15_M6         U1_N21618 0 U1_NAND15_N28600 0 CMOSN  
+ L=.18u  
+ W=.18u         
M_U1_NAND15_M2         U1_NAND15_N28600 N02078 0 0 CMOSN  
+ L=.18u  
+ W=.18u         
M_U1_NAND15_M4         U1_N21618 N02078 N02078 N02078 CMOSP  
+ L=.18u  
+ W=.2u         
R_U1_NAND56_R1         0 0  10Meg  
M_U1_NAND56_M5         U1_N64638 0 N02078 N02078 CMOSP  
+ L=.18u  
+ W=.2u         
R_U1_NAND56_R2         0 N02078  10Meg  
M_U1_NAND56_M6         U1_N64638 0 U1_NAND56_N28600 0 CMOSN  
+ L=.18u  
+ W=.18u         
M_U1_NAND56_M2         U1_NAND56_N28600 N02078 0 0 CMOSN  
+ L=.18u  
+ W=.18u         
M_U1_NAND56_M4         U1_N64638 N02078 N02078 N02078 CMOSP  
+ L=.18u  
+ W=.2u         
R_U1_NAND34_R1         0 -V14  10Meg  
M_U1_NAND34_M5         U1_N39698 -V14 N02078 N02078 CMOSP  
+ L=.18u  
+ W=.2u         
R_U1_NAND34_R2         0 V15  10Meg  
M_U1_NAND34_M6         U1_N39698 -V14 U1_NAND34_N28600 0 CMOSN  
+ L=.18u  
+ W=.18u         
M_U1_NAND34_M2         U1_NAND34_N28600 V15 0 0 CMOSN  
+ L=.18u  
+ W=.18u         
M_U1_NAND34_M4         U1_N39698 V15 N02078 N02078 CMOSP  
+ L=.18u  
+ W=.2u         
M_U1_INVERSOR7_M5         U1_N109656 U1_X2 N02078 N02078 CMOSP  
+ L=.18u  
+ W=.2u         
M_U1_INVERSOR7_M6         U1_N109656 U1_X2 0 0 CMOSN  
+ L=.18u  
+ W=.18u         
R_U1_INVERSOR7_R1         0 U1_X2  10Meg  
R_U1_NAND10_R1         0 0  10Meg  
M_U1_NAND10_M5         U1_N09965 0 N02078 N02078 CMOSP  
+ L=.18u  
+ W=.2u         
R_U1_NAND10_R2         0 N02078  10Meg  
M_U1_NAND10_M6         U1_N09965 0 U1_NAND10_N28600 0 CMOSN  
+ L=.18u  
+ W=.18u         
M_U1_NAND10_M2         U1_NAND10_N28600 N02078 0 0 CMOSN  
+ L=.18u  
+ W=.18u         
M_U1_NAND10_M4         U1_N09965 N02078 N02078 N02078 CMOSP  
+ L=.18u  
+ W=.2u         
R_U1_NAND41_R1         0 0  10Meg  
M_U1_NAND41_M5         U1_N41455 0 N02078 N02078 CMOSP  
+ L=.18u  
+ W=.2u         
R_U1_NAND41_R2         0 N02078  10Meg  
M_U1_NAND41_M6         U1_N41455 0 U1_NAND41_N28600 0 CMOSN  
+ L=.18u  
+ W=.18u         
M_U1_NAND41_M2         U1_NAND41_N28600 N02078 0 0 CMOSN  
+ L=.18u  
+ W=.18u         
M_U1_NAND41_M4         U1_N41455 N02078 N02078 N02078 CMOSP  
+ L=.18u  
+ W=.2u         
R_U1_NAND22_R1         0 0  10Meg  
M_U1_NAND22_M5         U1_N23026 0 N02078 N02078 CMOSP  
+ L=.18u  
+ W=.2u         
R_U1_NAND22_R2         0 N02078  10Meg  
M_U1_NAND22_M6         U1_N23026 0 U1_NAND22_N28600 0 CMOSN  
+ L=.18u  
+ W=.18u         
M_U1_NAND22_M2         U1_NAND22_N28600 N02078 0 0 CMOSN  
+ L=.18u  
+ W=.18u         
M_U1_NAND22_M4         U1_N23026 N02078 N02078 N02078 CMOSP  
+ L=.18u  
+ W=.2u         
R_U1_NAND35_R1         0 0  10Meg  
M_U1_NAND35_M5         U1_N41773 0 N02078 N02078 CMOSP  
+ L=.18u  
+ W=.2u         
R_U1_NAND35_R2         0 N02078  10Meg  
M_U1_NAND35_M6         U1_N41773 0 U1_NAND35_N28600 0 CMOSN  
+ L=.18u  
+ W=.18u         
M_U1_NAND35_M2         U1_NAND35_N28600 N02078 0 0 CMOSN  
+ L=.18u  
+ W=.18u         
M_U1_NAND35_M4         U1_N41773 N02078 N02078 N02078 CMOSP  
+ L=.18u  
+ W=.2u         
R_U1_NAND11_R1         0 U1_N04951  10Meg  
M_U1_NAND11_M5         5SB U1_N04951 N02078 N02078 CMOSP  
+ L=.18u  
+ W=.2u         
R_U1_NAND11_R2         0 U1_N05087  10Meg  
M_U1_NAND11_M6         5SB U1_N04951 U1_NAND11_N28600 0 CMOSN  
+ L=.18u  
+ W=.18u         
M_U1_NAND11_M2         U1_NAND11_N28600 U1_N05087 0 0 CMOSN  
+ L=.18u  
+ W=.18u         
M_U1_NAND11_M4         5SB U1_N05087 N02078 N02078 CMOSP  
+ L=.18u  
+ W=.2u         
R_U1_NAND57_R1         0 0  10Meg  
M_U1_NAND57_M5         U1_N64626 0 N02078 N02078 CMOSP  
+ L=.18u  
+ W=.2u         
R_U1_NAND57_R2         0 N02078  10Meg  
M_U1_NAND57_M6         U1_N64626 0 U1_NAND57_N28600 0 CMOSN  
+ L=.18u  
+ W=.18u         
M_U1_NAND57_M2         U1_NAND57_N28600 N02078 0 0 CMOSN  
+ L=.18u  
+ W=.18u         
M_U1_NAND57_M4         U1_N64626 N02078 N02078 N02078 CMOSP  
+ L=.18u  
+ W=.2u         
R_U1_NAND32_R1         0 -V10  10Meg  
M_U1_NAND32_M5         U1_N40258 -V10 N02078 N02078 CMOSP  
+ L=.18u  
+ W=.2u         
R_U1_NAND32_R2         0 V11  10Meg  
M_U1_NAND32_M6         U1_N40258 -V10 U1_NAND32_N28600 0 CMOSN  
+ L=.18u  
+ W=.18u         
M_U1_NAND32_M2         U1_NAND32_N28600 V11 0 0 CMOSN  
+ L=.18u  
+ W=.18u         
M_U1_NAND32_M4         U1_N40258 V11 N02078 N02078 CMOSP  
+ L=.18u  
+ W=.2u         
R_U1_NAND16_R1         0 0  10Meg  
M_U1_NAND16_M5         U1_N21286 0 N02078 N02078 CMOSP  
+ L=.18u  
+ W=.2u         
R_U1_NAND16_R2         0 N02078  10Meg  
M_U1_NAND16_M6         U1_N21286 0 U1_NAND16_N28600 0 CMOSN  
+ L=.18u  
+ W=.18u         
M_U1_NAND16_M2         U1_NAND16_N28600 N02078 0 0 CMOSN  
+ L=.18u  
+ W=.18u         
M_U1_NAND16_M4         U1_N21286 N02078 N02078 N02078 CMOSP  
+ L=.18u  
+ W=.2u         
R_U1_NAND27_R1         0 U1_N115981  10Meg  
M_U1_NAND27_M5         2SB U1_N115981 N02078 N02078 CMOSP  
+ L=.18u  
+ W=.2u         
R_U1_NAND27_R2         0 U1_N35491  10Meg  
M_U1_NAND27_M6         2SB U1_N115981 U1_NAND27_N28600 0 CMOSN  
+ L=.18u  
+ W=.18u         
M_U1_NAND27_M2         U1_NAND27_N28600 U1_N35491 0 0 CMOSN  
+ L=.18u  
+ W=.18u         
M_U1_NAND27_M4         2SB U1_N35491 N02078 N02078 CMOSP  
+ L=.18u  
+ W=.2u         
M_U1_8NAND4_M9         U1_X2 U1_N41479 N02078 N02078 CMOSP  
+ L=.18u  
+ W=.2u         
M_U1_8NAND4_M12         U1_X2 U1_N41491 N02078 N02078 CMOSP  
+ L=.18u  
+ W=.2u         
M_U1_8NAND4_M1         U1_X2 U1_N41761 U1_8NAND4_N64523 0 CMOSN  
+ L=.18u  
+ W=.18u         
M_U1_8NAND4_M15         U1_8NAND4_N64887 U1_N41455 0 0 CMOSN  
+ L=.18u  
+ W=.18u         
M_U1_8NAND4_M6         U1_8NAND4_N64745 U1_N41431 U1_8NAND4_N64785 0 CMOSN  
+ L=.18u  
+ W=.18u         
M_U1_8NAND4_M2         U1_8NAND4_N64523 U1_N41773 U1_8NAND4_N64745 0 CMOSN  
+ L=.18u  
+ W=.18u         
M_U1_8NAND4_M13         U1_8NAND4_N64235 U1_N41479 U1_8NAND4_N64241 0 CMOSN  
+ L=.18u  
+ W=.18u         
M_U1_8NAND4_M10         U1_8NAND4_N63965 U1_N41491 U1_8NAND4_N64235 0 CMOSN  
+ L=.18u  
+ W=.18u         
R_U1_8NAND4_R1         U1_N41761 0  10Meg  
M_U1_8NAND4_M16         U1_X2 U1_N41443 N02078 N02078 CMOSP  
+ L=.18u  
+ W=.2u         
M_U1_8NAND4_M3         U1_X2 U1_N41773 N02078 N02078 CMOSP  
+ L=.18u  
+ W=.2u         
M_U1_8NAND4_M14         U1_8NAND4_N64241 U1_N41467 U1_8NAND4_N64887 0 CMOSN  
+ L=.18u  
+ W=.18u         
R_U1_8NAND4_R2         U1_N41773 0  10Meg  
R_U1_8NAND4_R6         U1_N41479 0  10Meg  
M_U1_8NAND4_M8         U1_X2 U1_N41467 N02078 N02078 CMOSP  
+ L=.18u  
+ W=.2u         
M_U1_8NAND4_M4         U1_X2 U1_N41431 N02078 N02078 CMOSP  
+ L=.18u  
+ W=.2u         
R_U1_8NAND4_R3         U1_N41431 0  10Meg  
R_U1_8NAND4_R8         U1_N41455 0  10Meg  
R_U1_8NAND4_R7         U1_N41467 0  10Meg  
M_U1_8NAND4_M7         U1_8NAND4_N64785 U1_N41443 U1_8NAND4_N63965 0 CMOSN  
+ L=.18u  
+ W=.18u         
R_U1_8NAND4_R4         U1_N41443 0  10Meg  
R_U1_8NAND4_R5         U1_N41491 0  10Meg  
M_U1_8NAND4_M11         U1_X2 U1_N41761 N02078 N02078 CMOSP  
+ L=.18u  
+ W=.2u         
M_U1_8NAND4_M5         U1_X2 U1_N41455 N02078 N02078 CMOSP  
+ L=.18u  
+ W=.2u         
R_U1_4NAND1_R2         U1_N109656 0  10Meg  
R_U1_4NAND1_R3         U1_N110748 0  10Meg  
M_U1_4NAND1_M7         U1_4NAND1_N37228 U1_N110256 0 0 CMOSN  
+ L=.18u  
+ W=.18u         
M_U1_4NAND1_M5         LSB U1_N110748 N02078 N02078 CMOSP  
+ L=.18u  
+ W=.2u         
M_U1_4NAND1_M1         LSB U1_N108976 U1_4NAND1_N36892 0 CMOSN  
+ L=.18u  
+ W=.18u         
R_U1_4NAND1_R4         U1_N110256 0  10Meg  
M_U1_4NAND1_M6         U1_4NAND1_N37188 U1_N110748 U1_4NAND1_N37228 0 CMOSN  
+ L=.18u  
+ W=.18u         
M_U1_4NAND1_M2         U1_4NAND1_N36892 U1_N109656 U1_4NAND1_N37188 0 CMOSN  
+ L=.18u  
+ W=.18u         
M_U1_4NAND1_M8         LSB U1_N110256 N02078 N02078 CMOSP  
+ L=.18u  
+ W=.2u         
M_U1_4NAND1_M3         LSB U1_N108976 N02078 N02078 CMOSP  
+ L=.18u  
+ W=.2u         
R_U1_4NAND1_R1         U1_N108976 0  10Meg  
M_U1_4NAND1_M4         LSB U1_N109656 N02078 N02078 CMOSP  
+ L=.18u  
+ W=.2u         
M_U1_INVERSOR8_M5         U1_N110748 U1_X3 N02078 N02078 CMOSP  
+ L=.18u  
+ W=.2u         
M_U1_INVERSOR8_M6         U1_N110748 U1_X3 0 0 CMOSN  
+ L=.18u  
+ W=.18u         
R_U1_INVERSOR8_R1         0 U1_X3  10Meg  
R_U1_NAND45_R1         0 0  10Meg  
M_U1_NAND45_M5         U1_N42575 0 N02078 N02078 CMOSP  
+ L=.18u  
+ W=.2u         
R_U1_NAND45_R2         0 N02078  10Meg  
M_U1_NAND45_M6         U1_N42575 0 U1_NAND45_N28600 0 CMOSN  
+ L=.18u  
+ W=.18u         
M_U1_NAND45_M2         U1_NAND45_N28600 N02078 0 0 CMOSN  
+ L=.18u  
+ W=.18u         
M_U1_NAND45_M4         U1_N42575 N02078 N02078 N02078 CMOSP  
+ L=.18u  
+ W=.2u         
R_U1_NAND23_R1         0 0  10Meg  
M_U1_NAND23_M5         U1_N24562 0 N02078 N02078 CMOSP  
+ L=.18u  
+ W=.2u         
R_U1_NAND23_R2         0 N02078  10Meg  
M_U1_NAND23_M6         U1_N24562 0 U1_NAND23_N28600 0 CMOSN  
+ L=.18u  
+ W=.18u         
M_U1_NAND23_M2         U1_NAND23_N28600 N02078 0 0 CMOSN  
+ L=.18u  
+ W=.18u         
M_U1_NAND23_M4         U1_N24562 N02078 N02078 N02078 CMOSP  
+ L=.18u  
+ W=.2u         
R_U1_NAND4_R1         0 -V8  10Meg  
M_U1_NAND4_M5         U1_N09389 -V8 N02078 N02078 CMOSP  
+ L=.18u  
+ W=.2u         
R_U1_NAND4_R2         0 V12  10Meg  
M_U1_NAND4_M6         U1_N09389 -V8 U1_NAND4_N28600 0 CMOSN  
+ L=.18u  
+ W=.18u         
M_U1_NAND4_M2         U1_NAND4_N28600 V12 0 0 CMOSN  
+ L=.18u  
+ W=.18u         
M_U1_NAND4_M4         U1_N09389 V12 N02078 N02078 CMOSP  
+ L=.18u  
+ W=.2u         
M_U1_INVERSOR11_M5         U1_N160548 U1_N160424 N02078 N02078 CMOSP  
+ L=.18u  
+ W=.2u         
M_U1_INVERSOR11_M6         U1_N160548 U1_N160424 0 0 CMOSN  
+ L=.18u  
+ W=.18u         
R_U1_INVERSOR11_R1         0 U1_N160424  10Meg  
M_U1_INVERSOR5_M5         U1_N38273 V1 N02078 N02078 CMOSP  
+ L=.18u  
+ W=.2u         
M_U1_INVERSOR5_M6         U1_N38273 V1 0 0 CMOSN  
+ L=.18u  
+ W=.18u         
R_U1_INVERSOR5_R1         0 V1  10Meg  
M_U1_8NAND6_M9         U1_X4 U1_N64650 N02078 N02078 CMOSP  
+ L=.18u  
+ W=.2u         
M_U1_8NAND6_M12         U1_X4 U1_N64662 N02078 N02078 CMOSP  
+ L=.18u  
+ W=.2u         
M_U1_8NAND6_M1         U1_X4 U1_N64910 U1_8NAND6_N64523 0 CMOSN  
+ L=.18u  
+ W=.18u         
M_U1_8NAND6_M15         U1_8NAND6_N64887 U1_N64626 0 0 CMOSN  
+ L=.18u  
+ W=.18u         
M_U1_8NAND6_M6         U1_8NAND6_N64745 U1_N64602 U1_8NAND6_N64785 0 CMOSN  
+ L=.18u  
+ W=.18u         
M_U1_8NAND6_M2         U1_8NAND6_N64523 U1_N64930 U1_8NAND6_N64745 0 CMOSN  
+ L=.18u  
+ W=.18u         
M_U1_8NAND6_M13         U1_8NAND6_N64235 U1_N64650 U1_8NAND6_N64241 0 CMOSN  
+ L=.18u  
+ W=.18u         
M_U1_8NAND6_M10         U1_8NAND6_N63965 U1_N64662 U1_8NAND6_N64235 0 CMOSN  
+ L=.18u  
+ W=.18u         
R_U1_8NAND6_R1         U1_N64910 0  10Meg  
M_U1_8NAND6_M16         U1_X4 U1_N64614 N02078 N02078 CMOSP  
+ L=.18u  
+ W=.2u         
M_U1_8NAND6_M3         U1_X4 U1_N64930 N02078 N02078 CMOSP  
+ L=.18u  
+ W=.2u         
M_U1_8NAND6_M14         U1_8NAND6_N64241 U1_N64638 U1_8NAND6_N64887 0 CMOSN  
+ L=.18u  
+ W=.18u         
R_U1_8NAND6_R2         U1_N64930 0  10Meg  
R_U1_8NAND6_R6         U1_N64650 0  10Meg  
M_U1_8NAND6_M8         U1_X4 U1_N64638 N02078 N02078 CMOSP  
+ L=.18u  
+ W=.2u         
M_U1_8NAND6_M4         U1_X4 U1_N64602 N02078 N02078 CMOSP  
+ L=.18u  
+ W=.2u         
R_U1_8NAND6_R3         U1_N64602 0  10Meg  
R_U1_8NAND6_R8         U1_N64626 0  10Meg  
R_U1_8NAND6_R7         U1_N64638 0  10Meg  
M_U1_8NAND6_M7         U1_8NAND6_N64785 U1_N64614 U1_8NAND6_N63965 0 CMOSN  
+ L=.18u  
+ W=.18u         
R_U1_8NAND6_R4         U1_N64614 0  10Meg  
R_U1_8NAND6_R5         U1_N64662 0  10Meg  
M_U1_8NAND6_M11         U1_X4 U1_N64910 N02078 N02078 CMOSP  
+ L=.18u  
+ W=.2u         
M_U1_8NAND6_M5         U1_X4 U1_N64626 N02078 N02078 CMOSP  
+ L=.18u  
+ W=.2u         
R_U1_NAND51_R1         0 0  10Meg  
M_U1_NAND51_M5         U1_N64930 0 N02078 N02078 CMOSP  
+ L=.18u  
+ W=.2u         
R_U1_NAND51_R2         0 N02078  10Meg  
M_U1_NAND51_M6         U1_N64930 0 U1_NAND51_N28600 0 CMOSN  
+ L=.18u  
+ W=.18u         
M_U1_NAND51_M2         U1_NAND51_N28600 N02078 0 0 CMOSN  
+ L=.18u  
+ W=.18u         
M_U1_NAND51_M4         U1_N64930 N02078 N02078 N02078 CMOSP  
+ L=.18u  
+ W=.2u         
R_U1_NAND1_R1         0 0  10Meg  
M_U1_NAND1_M5         U1_N06686 0 N02078 N02078 CMOSP  
+ L=.18u  
+ W=.2u         
R_U1_NAND1_R2         0 N02078  10Meg  
M_U1_NAND1_M6         U1_N06686 0 U1_NAND1_N28600 0 CMOSN  
+ L=.18u  
+ W=.18u         
M_U1_NAND1_M2         U1_NAND1_N28600 N02078 0 0 CMOSN  
+ L=.18u  
+ W=.18u         
M_U1_NAND1_M4         U1_N06686 N02078 N02078 N02078 CMOSP  
+ L=.18u  
+ W=.2u         
M_U1_INVERSOR2_M5         U1_N08942 V4 N02078 N02078 CMOSP  
+ L=.18u  
+ W=.2u         
M_U1_INVERSOR2_M6         U1_N08942 V4 0 0 CMOSN  
+ L=.18u  
+ W=.18u         
R_U1_INVERSOR2_R1         0 V4  10Meg  
R_U1_NAND17_R1         0 0  10Meg  
M_U1_NAND17_M5         U1_N20962 0 N02078 N02078 CMOSP  
+ L=.18u  
+ W=.2u         
R_U1_NAND17_R2         0 N02078  10Meg  
M_U1_NAND17_M6         U1_N20962 0 U1_NAND17_N28600 0 CMOSN  
+ L=.18u  
+ W=.18u         
M_U1_NAND17_M2         U1_NAND17_N28600 N02078 0 0 CMOSN  
+ L=.18u  
+ W=.18u         
M_U1_NAND17_M4         U1_N20962 N02078 N02078 N02078 CMOSP  
+ L=.18u  
+ W=.2u         
R_U1_NAND46_R1         0 0  10Meg  
M_U1_NAND46_M5         U1_N42563 0 N02078 N02078 CMOSP  
+ L=.18u  
+ W=.2u         
R_U1_NAND46_R2         0 N02078  10Meg  
M_U1_NAND46_M6         U1_N42563 0 U1_NAND46_N28600 0 CMOSN  
+ L=.18u  
+ W=.18u         
M_U1_NAND46_M2         U1_NAND46_N28600 N02078 0 0 CMOSN  
+ L=.18u  
+ W=.18u         
M_U1_NAND46_M4         U1_N42563 N02078 N02078 N02078 CMOSP  
+ L=.18u  
+ W=.2u         
R_U1_4NAND_R2         U1_N06686 0  10Meg  
R_U1_4NAND_R3         U1_N06361 0  10Meg  
M_U1_4NAND_M7         U1_4NAND_N37228 U1_N06203 0 0 CMOSN  
+ L=.18u  
+ W=.18u         
M_U1_4NAND_M5         4SB U1_N06361 N02078 N02078 CMOSP  
+ L=.18u  
+ W=.2u         
M_U1_4NAND_M1         4SB U1_N06051 U1_4NAND_N36892 0 CMOSN  
+ L=.18u  
+ W=.18u         
R_U1_4NAND_R4         U1_N06203 0  10Meg  
M_U1_4NAND_M6         U1_4NAND_N37188 U1_N06361 U1_4NAND_N37228 0 CMOSN  
+ L=.18u  
+ W=.18u         
M_U1_4NAND_M2         U1_4NAND_N36892 U1_N06686 U1_4NAND_N37188 0 CMOSN  
+ L=.18u  
+ W=.18u         
M_U1_4NAND_M8         4SB U1_N06203 N02078 N02078 CMOSP  
+ L=.18u  
+ W=.2u         
M_U1_4NAND_M3         4SB U1_N06051 N02078 N02078 CMOSP  
+ L=.18u  
+ W=.2u         
R_U1_4NAND_R1         U1_N06051 0  10Meg  
M_U1_4NAND_M4         4SB U1_N06686 N02078 N02078 CMOSP  
+ L=.18u  
+ W=.2u         
R_U1_R1         N02078 U1_N11766  1  
R_U1_NAND5_R1         0 0  10Meg  
M_U1_NAND5_M5         U1_N09575 0 N02078 N02078 CMOSP  
+ L=.18u  
+ W=.2u         
R_U1_NAND5_R2         0 N02078  10Meg  
M_U1_NAND5_M6         U1_N09575 0 U1_NAND5_N28600 0 CMOSN  
+ L=.18u  
+ W=.18u         
M_U1_NAND5_M2         U1_NAND5_N28600 N02078 0 0 CMOSN  
+ L=.18u  
+ W=.18u         
M_U1_NAND5_M4         U1_N09575 N02078 N02078 N02078 CMOSP  
+ L=.18u  
+ W=.2u         
M_U1_INVERSOR10_M5         U1_N115981 U1_N32124 N02078 N02078 CMOSP  
+ L=.18u  
+ W=.2u         
M_U1_INVERSOR10_M6         U1_N115981 U1_N32124 0 0 CMOSN  
+ L=.18u  
+ W=.18u         
R_U1_INVERSOR10_R1         0 U1_N32124  10Meg  
M_U1_INVERSOR9_M5         U1_N110256 U1_X4 N02078 N02078 CMOSP  
+ L=.18u  
+ W=.2u         
M_U1_INVERSOR9_M6         U1_N110256 U1_X4 0 0 CMOSN  
+ L=.18u  
+ W=.18u         
R_U1_INVERSOR9_R1         0 U1_X4  10Meg  
R_U1_NAND30_R1         0 -V6  10Meg  
M_U1_NAND30_M5         U1_N39377 -V6 N02078 N02078 CMOSP  
+ L=.18u  
+ W=.2u         
R_U1_NAND30_R2         0 V7  10Meg  
M_U1_NAND30_M6         U1_N39377 -V6 U1_NAND30_N28600 0 CMOSN  
+ L=.18u  
+ W=.18u         
M_U1_NAND30_M2         U1_NAND30_N28600 V7 0 0 CMOSN  
+ L=.18u  
+ W=.18u         
M_U1_NAND30_M4         U1_N39377 V7 N02078 N02078 CMOSP  
+ L=.18u  
+ W=.2u         
R_U1_NAND24_R1         0 0  10Meg  
M_U1_NAND24_M5         U1_N24166 0 N02078 N02078 CMOSP  
+ L=.18u  
+ W=.2u         
R_U1_NAND24_R2         0 N02078  10Meg  
M_U1_NAND24_M6         U1_N24166 0 U1_NAND24_N28600 0 CMOSN  
+ L=.18u  
+ W=.18u         
M_U1_NAND24_M2         U1_NAND24_N28600 N02078 0 0 CMOSN  
+ L=.18u  
+ W=.18u         
M_U1_NAND24_M4         U1_N24166 N02078 N02078 N02078 CMOSP  
+ L=.18u  
+ W=.2u         
R_U1_R3         U1_N11766 0  1Meg  
R_U1_NAND6_R1         0 0  10Meg  
M_U1_NAND6_M5         U1_N09767 0 N02078 N02078 CMOSP  
+ L=.18u  
+ W=.2u         
R_U1_NAND6_R2         0 N02078  10Meg  
M_U1_NAND6_M6         U1_N09767 0 U1_NAND6_N28600 0 CMOSN  
+ L=.18u  
+ W=.18u         
M_U1_NAND6_M2         U1_NAND6_N28600 N02078 0 0 CMOSN  
+ L=.18u  
+ W=.18u         
M_U1_NAND6_M4         U1_N09767 N02078 N02078 N02078 CMOSP  
+ L=.18u  
+ W=.2u         
R_U1_NAND58_R1         0 0  10Meg  
M_U1_NAND58_M5         U1_N64910 0 N02078 N02078 CMOSP  
+ L=.18u  
+ W=.2u         
R_U1_NAND58_R2         0 N02078  10Meg  
M_U1_NAND58_M6         U1_N64910 0 U1_NAND58_N28600 0 CMOSN  
+ L=.18u  
+ W=.18u         
M_U1_NAND58_M2         U1_NAND58_N28600 N02078 0 0 CMOSN  
+ L=.18u  
+ W=.18u         
M_U1_NAND58_M4         U1_N64910 N02078 N02078 N02078 CMOSP  
+ L=.18u  
+ W=.2u         
R_U1_NAND47_R1         0 0  10Meg  
M_U1_NAND47_M5         U1_N42551 0 N02078 N02078 CMOSP  
+ L=.18u  
+ W=.2u         
R_U1_NAND47_R2         0 N02078  10Meg  
M_U1_NAND47_M6         U1_N42551 0 U1_NAND47_N28600 0 CMOSN  
+ L=.18u  
+ W=.18u         
M_U1_NAND47_M2         U1_NAND47_N28600 N02078 0 0 CMOSN  
+ L=.18u  
+ W=.18u         
M_U1_NAND47_M4         U1_N42551 N02078 N02078 N02078 CMOSP  
+ L=.18u  
+ W=.2u         
R_U1_NAND36_R1         0 0  10Meg  
M_U1_NAND36_M5         U1_N41431 0 N02078 N02078 CMOSP  
+ L=.18u  
+ W=.2u         
R_U1_NAND36_R2         0 N02078  10Meg  
M_U1_NAND36_M6         U1_N41431 0 U1_NAND36_N28600 0 CMOSN  
+ L=.18u  
+ W=.18u         
M_U1_NAND36_M2         U1_NAND36_N28600 N02078 0 0 CMOSN  
+ L=.18u  
+ W=.18u         
M_U1_NAND36_M4         U1_N41431 N02078 N02078 N02078 CMOSP  
+ L=.18u  
+ W=.2u         
R_U1_NAND18_R1         0 0  10Meg  
M_U1_NAND18_M5         U1_N20646 0 N02078 N02078 CMOSP  
+ L=.18u  
+ W=.2u         
R_U1_NAND18_R2         0 N02078  10Meg  
M_U1_NAND18_M6         U1_N20646 0 U1_NAND18_N28600 0 CMOSN  
+ L=.18u  
+ W=.18u         
M_U1_NAND18_M2         U1_NAND18_N28600 N02078 0 0 CMOSN  
+ L=.18u  
+ W=.18u         
M_U1_NAND18_M4         U1_N20646 N02078 N02078 N02078 CMOSP  
+ L=.18u  
+ W=.2u         
M_U1_8NAND2_M9         U1_N32124 U1_N24166 N02078 N02078 CMOSP  
+ L=.18u  
+ W=.2u         
M_U1_8NAND2_M12         U1_N32124 U1_N24562 N02078 N02078 CMOSP  
+ L=.18u  
+ W=.2u         
M_U1_8NAND2_M1         U1_N32124 U1_N21958 U1_8NAND2_N64523 0 CMOSN  
+ L=.18u  
+ W=.18u         
M_U1_8NAND2_M15         U1_8NAND2_N64887 U1_N23398 0 0 CMOSN  
+ L=.18u  
+ W=.18u         
M_U1_8NAND2_M6         U1_8NAND2_N64745 U1_N22662 U1_8NAND2_N64785 0 CMOSN  
+ L=.18u  
+ W=.18u         
M_U1_8NAND2_M2         U1_8NAND2_N64523 U1_N22306 U1_8NAND2_N64745 0 CMOSN  
+ L=.18u  
+ W=.18u         
M_U1_8NAND2_M13         U1_8NAND2_N64235 U1_N24166 U1_8NAND2_N64241 0 CMOSN  
+ L=.18u  
+ W=.18u         
M_U1_8NAND2_M10         U1_8NAND2_N63965 U1_N24562 U1_8NAND2_N64235 0 CMOSN  
+ L=.18u  
+ W=.18u         
R_U1_8NAND2_R1         U1_N21958 0  10Meg  
M_U1_8NAND2_M16         U1_N32124 U1_N23026 N02078 N02078 CMOSP  
+ L=.18u  
+ W=.2u         
M_U1_8NAND2_M3         U1_N32124 U1_N22306 N02078 N02078 CMOSP  
+ L=.18u  
+ W=.2u         
M_U1_8NAND2_M14         U1_8NAND2_N64241 U1_N23778 U1_8NAND2_N64887 0 CMOSN  
+ L=.18u  
+ W=.18u         
R_U1_8NAND2_R2         U1_N22306 0  10Meg  
R_U1_8NAND2_R6         U1_N24166 0  10Meg  
M_U1_8NAND2_M8         U1_N32124 U1_N23778 N02078 N02078 CMOSP  
+ L=.18u  
+ W=.2u         
M_U1_8NAND2_M4         U1_N32124 U1_N22662 N02078 N02078 CMOSP  
+ L=.18u  
+ W=.2u         
R_U1_8NAND2_R3         U1_N22662 0  10Meg  
R_U1_8NAND2_R8         U1_N23398 0  10Meg  
R_U1_8NAND2_R7         U1_N23778 0  10Meg  
M_U1_8NAND2_M7         U1_8NAND2_N64785 U1_N23026 U1_8NAND2_N63965 0 CMOSN  
+ L=.18u  
+ W=.18u         
R_U1_8NAND2_R4         U1_N23026 0  10Meg  
R_U1_8NAND2_R5         U1_N24562 0  10Meg  
M_U1_8NAND2_M11         U1_N32124 U1_N21958 N02078 N02078 CMOSP  
+ L=.18u  
+ W=.2u         
M_U1_8NAND2_M5         U1_N32124 U1_N23398 N02078 N02078 CMOSP  
+ L=.18u  
+ W=.2u         
M_U1_INVERSOR3_M5         U1_N19319 V2 N02078 N02078 CMOSP  
+ L=.18u  
+ W=.2u         
M_U1_INVERSOR3_M6         U1_N19319 V2 0 0 CMOSN  
+ L=.18u  
+ W=.18u         
R_U1_INVERSOR3_R1         0 V2  10Meg  
R_U1_NAND25_R1         0 0  10Meg  
M_U1_NAND25_M5         U1_N23778 0 N02078 N02078 CMOSP  
+ L=.18u  
+ W=.2u         
R_U1_NAND25_R2         0 N02078  10Meg  
M_U1_NAND25_M6         U1_N23778 0 U1_NAND25_N28600 0 CMOSN  
+ L=.18u  
+ W=.18u         
M_U1_NAND25_M2         U1_NAND25_N28600 N02078 0 0 CMOSN  
+ L=.18u  
+ W=.18u         
M_U1_NAND25_M4         U1_N23778 N02078 N02078 N02078 CMOSP  
+ L=.18u  
+ W=.2u         
R_U1_NAND28_R1         0 -V2  10Meg  
M_U1_NAND28_M5         U1_N38573 -V2 N02078 N02078 CMOSP  
+ L=.18u  
+ W=.2u         
R_U1_NAND28_R2         0 V3  10Meg  
M_U1_NAND28_M6         U1_N38573 -V2 U1_NAND28_N28600 0 CMOSN  
+ L=.18u  
+ W=.18u         
M_U1_NAND28_M2         U1_NAND28_N28600 V3 0 0 CMOSN  
+ L=.18u  
+ W=.18u         
M_U1_NAND28_M4         U1_N38573 V3 N02078 N02078 CMOSP  
+ L=.18u  
+ W=.2u         
R_U1_NAND37_R1         0 0  10Meg  
M_U1_NAND37_M5         U1_N41443 0 N02078 N02078 CMOSP  
+ L=.18u  
+ W=.2u         
R_U1_NAND37_R2         0 N02078  10Meg  
M_U1_NAND37_M6         U1_N41443 0 U1_NAND37_N28600 0 CMOSN  
+ L=.18u  
+ W=.18u         
M_U1_NAND37_M2         U1_NAND37_N28600 N02078 0 0 CMOSN  
+ L=.18u  
+ W=.18u         
M_U1_NAND37_M4         U1_N41443 N02078 N02078 N02078 CMOSP  
+ L=.18u  
+ W=.2u         
M_U1_INVERSOR_M5         U1_N04951 N02078 N02078 N02078 CMOSP  
+ L=.18u  
+ W=.2u         
M_U1_INVERSOR_M6         U1_N04951 N02078 0 0 CMOSN  
+ L=.18u  
+ W=.18u         
R_U1_INVERSOR_R1         0 N02078  10Meg  
M_U1_8NAND3_M9         U1_X1 U1_N40258 N02078 N02078 CMOSP  
+ L=.18u  
+ W=.2u         
M_U1_8NAND3_M12         U1_X1 U1_N40550 N02078 N02078 CMOSP  
+ L=.18u  
+ W=.2u         
M_U1_8NAND3_M1         U1_X1 U1_N38273 U1_8NAND3_N64523 0 CMOSN  
+ L=.18u  
+ W=.18u         
M_U1_8NAND3_M15         U1_8NAND3_N64887 U1_N39698 0 0 CMOSN  
+ L=.18u  
+ W=.18u         
M_U1_8NAND3_M6         U1_8NAND3_N64745 U1_N38957 U1_8NAND3_N64785 0 CMOSN  
+ L=.18u  
+ W=.18u         
M_U1_8NAND3_M2         U1_8NAND3_N64523 U1_N38573 U1_8NAND3_N64745 0 CMOSN  
+ L=.18u  
+ W=.18u         
M_U1_8NAND3_M13         U1_8NAND3_N64235 U1_N40258 U1_8NAND3_N64241 0 CMOSN  
+ L=.18u  
+ W=.18u         
M_U1_8NAND3_M10         U1_8NAND3_N63965 U1_N40550 U1_8NAND3_N64235 0 CMOSN  
+ L=.18u  
+ W=.18u         
R_U1_8NAND3_R1         U1_N38273 0  10Meg  
M_U1_8NAND3_M16         U1_X1 U1_N39377 N02078 N02078 CMOSP  
+ L=.18u  
+ W=.2u         
M_U1_8NAND3_M3         U1_X1 U1_N38573 N02078 N02078 CMOSP  
+ L=.18u  
+ W=.2u         
M_U1_8NAND3_M14         U1_8NAND3_N64241 U1_N39974 U1_8NAND3_N64887 0 CMOSN  
+ L=.18u  
+ W=.18u         
R_U1_8NAND3_R2         U1_N38573 0  10Meg  
R_U1_8NAND3_R6         U1_N40258 0  10Meg  
M_U1_8NAND3_M8         U1_X1 U1_N39974 N02078 N02078 CMOSP  
+ L=.18u  
+ W=.2u         
M_U1_8NAND3_M4         U1_X1 U1_N38957 N02078 N02078 CMOSP  
+ L=.18u  
+ W=.2u         
R_U1_8NAND3_R3         U1_N38957 0  10Meg  
R_U1_8NAND3_R8         U1_N39698 0  10Meg  
R_U1_8NAND3_R7         U1_N39974 0  10Meg  
M_U1_8NAND3_M7         U1_8NAND3_N64785 U1_N39377 U1_8NAND3_N63965 0 CMOSN  
+ L=.18u  
+ W=.18u         
R_U1_8NAND3_R4         U1_N39377 0  10Meg  
R_U1_8NAND3_R5         U1_N40550 0  10Meg  
M_U1_8NAND3_M11         U1_X1 U1_N38273 N02078 N02078 CMOSP  
+ L=.18u  
+ W=.2u         
M_U1_8NAND3_M5         U1_X1 U1_N39698 N02078 N02078 CMOSP  
+ L=.18u  
+ W=.2u         
R_U1_NAND29_R1         0 -V4  10Meg  
M_U1_NAND29_M5         U1_N38957 -V4 N02078 N02078 CMOSP  
+ L=.18u  
+ W=.2u         
R_U1_NAND29_R2         0 V5  10Meg  
M_U1_NAND29_M6         U1_N38957 -V4 U1_NAND29_N28600 0 CMOSN  
+ L=.18u  
+ W=.18u         
M_U1_NAND29_M2         U1_NAND29_N28600 V5 0 0 CMOSN  
+ L=.18u  
+ W=.18u         
M_U1_NAND29_M4         U1_N38957 V5 N02078 N02078 CMOSP  
+ L=.18u  
+ W=.2u         
R_U1_NAND52_R1         0 0  10Meg  
M_U1_NAND52_M5         U1_N64602 0 N02078 N02078 CMOSP  
+ L=.18u  
+ W=.2u         
R_U1_NAND52_R2         0 N02078  10Meg  
M_U1_NAND52_M6         U1_N64602 0 U1_NAND52_N28600 0 CMOSN  
+ L=.18u  
+ W=.18u         
M_U1_NAND52_M2         U1_NAND52_N28600 N02078 0 0 CMOSN  
+ L=.18u  
+ W=.18u         
M_U1_NAND52_M4         U1_N64602 N02078 N02078 N02078 CMOSP  
+ L=.18u  
+ W=.2u         
R_U1_NAND48_R1         0 0  10Meg  
M_U1_NAND48_M5         U1_N42539 0 N02078 N02078 CMOSP  
+ L=.18u  
+ W=.2u         
R_U1_NAND48_R2         0 N02078  10Meg  
M_U1_NAND48_M6         U1_N42539 0 U1_NAND48_N28600 0 CMOSN  
+ L=.18u  
+ W=.18u         
M_U1_NAND48_M2         U1_NAND48_N28600 N02078 0 0 CMOSN  
+ L=.18u  
+ W=.18u         
M_U1_NAND48_M4         U1_N42539 N02078 N02078 N02078 CMOSP  
+ L=.18u  
+ W=.2u         
R_U1_NAND19_R1         0 0  10Meg  
M_U1_NAND19_M5         U1_N21958 0 N02078 N02078 CMOSP  
+ L=.18u  
+ W=.2u         
R_U1_NAND19_R2         0 N02078  10Meg  
M_U1_NAND19_M6         U1_N21958 0 U1_NAND19_N28600 0 CMOSN  
+ L=.18u  
+ W=.18u         
M_U1_NAND19_M2         U1_NAND19_N28600 N02078 0 0 CMOSN  
+ L=.18u  
+ W=.18u         
M_U1_NAND19_M4         U1_N21958 N02078 N02078 N02078 CMOSP  
+ L=.18u  
+ W=.2u         
R_U1_NAND33_R1         0 -V12  10Meg  
M_U1_NAND33_M5         U1_N39974 -V12 N02078 N02078 CMOSP  
+ L=.18u  
+ W=.2u         
R_U1_NAND33_R2         0 V13  10Meg  
M_U1_NAND33_M6         U1_N39974 -V12 U1_NAND33_N28600 0 CMOSN  
+ L=.18u  
+ W=.18u         
M_U1_NAND33_M2         U1_NAND33_N28600 V13 0 0 CMOSN  
+ L=.18u  
+ W=.18u         
M_U1_NAND33_M4         U1_N39974 V13 N02078 N02078 CMOSP  
+ L=.18u  
+ W=.2u         
R_U1_NAND12_R1         0 -V4  10Meg  
M_U1_NAND12_M5         U1_N19603 -V4 N02078 N02078 CMOSP  
+ L=.18u  
+ W=.2u         
R_U1_NAND12_R2         0 V6  10Meg  
M_U1_NAND12_M6         U1_N19603 -V4 U1_NAND12_N28600 0 CMOSN  
+ L=.18u  
+ W=.18u         
M_U1_NAND12_M2         U1_NAND12_N28600 V6 0 0 CMOSN  
+ L=.18u  
+ W=.18u         
M_U1_NAND12_M4         U1_N19603 V6 N02078 N02078 CMOSP  
+ L=.18u  
+ W=.2u         
R_U1_NAND53_R1         0 0  10Meg  
M_U1_NAND53_M5         U1_N64614 0 N02078 N02078 CMOSP  
+ L=.18u  
+ W=.2u         
R_U1_NAND53_R2         0 N02078  10Meg  
M_U1_NAND53_M6         U1_N64614 0 U1_NAND53_N28600 0 CMOSN  
+ L=.18u  
+ W=.18u         
M_U1_NAND53_M2         U1_NAND53_N28600 N02078 0 0 CMOSN  
+ L=.18u  
+ W=.18u         
M_U1_NAND53_M4         U1_N64614 N02078 N02078 N02078 CMOSP  
+ L=.18u  
+ W=.2u         
R_U1_NAND26_R1         0 0  10Meg  
M_U1_NAND26_M5         U1_N23398 0 N02078 N02078 CMOSP  
+ L=.18u  
+ W=.2u         
R_U1_NAND26_R2         0 N02078  10Meg  
M_U1_NAND26_M6         U1_N23398 0 U1_NAND26_N28600 0 CMOSN  
+ L=.18u  
+ W=.18u         
M_U1_NAND26_M2         U1_NAND26_N28600 N02078 0 0 CMOSN  
+ L=.18u  
+ W=.18u         
M_U1_NAND26_M4         U1_N23398 N02078 N02078 N02078 CMOSP  
+ L=.18u  
+ W=.2u         
R_U1_NAND42_R1         0 0  10Meg  
M_U1_NAND42_M5         U1_N42857 0 N02078 N02078 CMOSP  
+ L=.18u  
+ W=.2u         
R_U1_NAND42_R2         0 N02078  10Meg  
M_U1_NAND42_M6         U1_N42857 0 U1_NAND42_N28600 0 CMOSN  
+ L=.18u  
+ W=.18u         
M_U1_NAND42_M2         U1_NAND42_N28600 N02078 0 0 CMOSN  
+ L=.18u  
+ W=.18u         
M_U1_NAND42_M4         U1_N42857 N02078 N02078 N02078 CMOSP  
+ L=.18u  
+ W=.2u         
R_U1_NAND50_R1         0 0  10Meg  
M_U1_NAND50_M5         U1_N42845 0 N02078 N02078 CMOSP  
+ L=.18u  
+ W=.2u         
R_U1_NAND50_R2         0 N02078  10Meg  
M_U1_NAND50_M6         U1_N42845 0 U1_NAND50_N28600 0 CMOSN  
+ L=.18u  
+ W=.18u         
M_U1_NAND50_M2         U1_NAND50_N28600 N02078 0 0 CMOSN  
+ L=.18u  
+ W=.18u         
M_U1_NAND50_M4         U1_N42845 N02078 N02078 N02078 CMOSP  
+ L=.18u  
+ W=.2u         
M_U1_INVERSOR1_M5         U1_N06051 V8 N02078 N02078 CMOSP  
+ L=.18u  
+ W=.2u         
M_U1_INVERSOR1_M6         U1_N06051 V8 0 0 CMOSN  
+ L=.18u  
+ W=.18u         
R_U1_INVERSOR1_R1         0 V8  10Meg  
M_U1_8NAND5_M9         U1_X3 U1_N42563 N02078 N02078 CMOSP  
+ L=.18u  
+ W=.2u         
M_U1_8NAND5_M12         U1_X3 U1_N42575 N02078 N02078 CMOSP  
+ L=.18u  
+ W=.2u         
M_U1_8NAND5_M1         U1_X3 U1_N42845 U1_8NAND5_N64523 0 CMOSN  
+ L=.18u  
+ W=.18u         
M_U1_8NAND5_M15         U1_8NAND5_N64887 U1_N42539 0 0 CMOSN  
+ L=.18u  
+ W=.18u         
M_U1_8NAND5_M6         U1_8NAND5_N64745 U1_N42515 U1_8NAND5_N64785 0 CMOSN  
+ L=.18u  
+ W=.18u         
M_U1_8NAND5_M2         U1_8NAND5_N64523 U1_N42857 U1_8NAND5_N64745 0 CMOSN  
+ L=.18u  
+ W=.18u         
M_U1_8NAND5_M13         U1_8NAND5_N64235 U1_N42563 U1_8NAND5_N64241 0 CMOSN  
+ L=.18u  
+ W=.18u         
M_U1_8NAND5_M10         U1_8NAND5_N63965 U1_N42575 U1_8NAND5_N64235 0 CMOSN  
+ L=.18u  
+ W=.18u         
R_U1_8NAND5_R1         U1_N42845 0  10Meg  
M_U1_8NAND5_M16         U1_X3 U1_N42527 N02078 N02078 CMOSP  
+ L=.18u  
+ W=.2u         
M_U1_8NAND5_M3         U1_X3 U1_N42857 N02078 N02078 CMOSP  
+ L=.18u  
+ W=.2u         
M_U1_8NAND5_M14         U1_8NAND5_N64241 U1_N42551 U1_8NAND5_N64887 0 CMOSN  
+ L=.18u  
+ W=.18u         
R_U1_8NAND5_R2         U1_N42857 0  10Meg  
R_U1_8NAND5_R6         U1_N42563 0  10Meg  
M_U1_8NAND5_M8         U1_X3 U1_N42551 N02078 N02078 CMOSP  
+ L=.18u  
+ W=.2u         
M_U1_8NAND5_M4         U1_X3 U1_N42515 N02078 N02078 CMOSP  
+ L=.18u  
+ W=.2u         
R_U1_8NAND5_R3         U1_N42515 0  10Meg  
R_U1_8NAND5_R8         U1_N42539 0  10Meg  
R_U1_8NAND5_R7         U1_N42551 0  10Meg  
M_U1_8NAND5_M7         U1_8NAND5_N64785 U1_N42527 U1_8NAND5_N63965 0 CMOSN  
+ L=.18u  
+ W=.18u         
R_U1_8NAND5_R4         U1_N42527 0  10Meg  
R_U1_8NAND5_R5         U1_N42575 0  10Meg  
M_U1_8NAND5_M11         U1_X3 U1_N42845 N02078 N02078 CMOSP  
+ L=.18u  
+ W=.2u         
M_U1_8NAND5_M5         U1_X3 U1_N42539 N02078 N02078 CMOSP  
+ L=.18u  
+ W=.2u         
R_U1_NAND38_R1         0 0  10Meg  
M_U1_NAND38_M5         U1_N41491 0 N02078 N02078 CMOSP  
+ L=.18u  
+ W=.2u         
R_U1_NAND38_R2         0 N02078  10Meg  
M_U1_NAND38_M6         U1_N41491 0 U1_NAND38_N28600 0 CMOSN  
+ L=.18u  
+ W=.18u         
M_U1_NAND38_M2         U1_NAND38_N28600 N02078 0 0 CMOSN  
+ L=.18u  
+ W=.18u         
M_U1_NAND38_M4         U1_N41491 N02078 N02078 N02078 CMOSP  
+ L=.18u  
+ W=.2u         
R_U1_NAND13_R1         0 -V8  10Meg  
M_U1_NAND13_M5         U1_N20038 -V8 N02078 N02078 CMOSP  
+ L=.18u  
+ W=.2u         
R_U1_NAND13_R2         0 V10  10Meg  
M_U1_NAND13_M6         U1_N20038 -V8 U1_NAND13_N28600 0 CMOSN  
+ L=.18u  
+ W=.18u         
M_U1_NAND13_M2         U1_NAND13_N28600 V10 0 0 CMOSN  
+ L=.18u  
+ W=.18u         
M_U1_NAND13_M4         U1_N20038 V10 N02078 N02078 CMOSP  
+ L=.18u  
+ W=.2u         
R_U1_NAND31_R1         0 -V8  10Meg  
M_U1_NAND31_M5         U1_N40550 -V8 N02078 N02078 CMOSP  
+ L=.18u  
+ W=.2u         
R_U1_NAND31_R2         0 V9  10Meg  
M_U1_NAND31_M6         U1_N40550 -V8 U1_NAND31_N28600 0 CMOSN  
+ L=.18u  
+ W=.18u         
M_U1_NAND31_M2         U1_NAND31_N28600 V9 0 0 CMOSN  
+ L=.18u  
+ W=.18u         
M_U1_NAND31_M4         U1_N40550 V9 N02078 N02078 CMOSP  
+ L=.18u  
+ W=.2u         
R_U1_NAND7_R1         0 0  10Meg  
M_U1_NAND7_M5         U1_N10700 0 N02078 N02078 CMOSP  
+ L=.18u  
+ W=.2u         
R_U1_NAND7_R2         0 N02078  10Meg  
M_U1_NAND7_M6         U1_N10700 0 U1_NAND7_N28600 0 CMOSN  
+ L=.18u  
+ W=.18u         
M_U1_NAND7_M2         U1_NAND7_N28600 N02078 0 0 CMOSN  
+ L=.18u  
+ W=.18u         
M_U1_NAND7_M4         U1_N10700 N02078 N02078 N02078 CMOSP  
+ L=.18u  
+ W=.2u         
R_U1_NAND8_R1         0 0  10Meg  
M_U1_NAND8_M5         U1_N10484 0 N02078 N02078 CMOSP  
+ L=.18u  
+ W=.2u         
R_U1_NAND8_R2         0 N02078  10Meg  
M_U1_NAND8_M6         U1_N10484 0 U1_NAND8_N28600 0 CMOSN  
+ L=.18u  
+ W=.18u         
M_U1_NAND8_M2         U1_NAND8_N28600 N02078 0 0 CMOSN  
+ L=.18u  
+ W=.18u         
M_U1_NAND8_M4         U1_N10484 N02078 N02078 N02078 CMOSP  
+ L=.18u  
+ W=.2u         
R_U1_NAND20_R1         0 0  10Meg  
M_U1_NAND20_M5         U1_N22306 0 N02078 N02078 CMOSP  
+ L=.18u  
+ W=.2u         
R_U1_NAND20_R2         0 N02078  10Meg  
M_U1_NAND20_M6         U1_N22306 0 U1_NAND20_N28600 0 CMOSN  
+ L=.18u  
+ W=.18u         
M_U1_NAND20_M2         U1_NAND20_N28600 N02078 0 0 CMOSN  
+ L=.18u  
+ W=.18u         
M_U1_NAND20_M4         U1_N22306 N02078 N02078 N02078 CMOSP  
+ L=.18u  
+ W=.2u         
R_U1_NAND2_R1         0 0  10Meg  
M_U1_NAND2_M5         U1_N06361 0 N02078 N02078 CMOSP  
+ L=.18u  
+ W=.2u         
R_U1_NAND2_R2         0 N02078  10Meg  
M_U1_NAND2_M6         U1_N06361 0 U1_NAND2_N28600 0 CMOSN  
+ L=.18u  
+ W=.18u         
M_U1_NAND2_M2         U1_NAND2_N28600 N02078 0 0 CMOSN  
+ L=.18u  
+ W=.18u         
M_U1_NAND2_M4         U1_N06361 N02078 N02078 N02078 CMOSP  
+ L=.18u  
+ W=.2u         
R_U1_NAND39_R1         0 0  10Meg  
M_U1_NAND39_M5         U1_N41479 0 N02078 N02078 CMOSP  
+ L=.18u  
+ W=.2u         
R_U1_NAND39_R2         0 N02078  10Meg  
M_U1_NAND39_M6         U1_N41479 0 U1_NAND39_N28600 0 CMOSN  
+ L=.18u  
+ W=.18u         
M_U1_NAND39_M2         U1_NAND39_N28600 N02078 0 0 CMOSN  
+ L=.18u  
+ W=.18u         
M_U1_NAND39_M4         U1_N41479 N02078 N02078 N02078 CMOSP  
+ L=.18u  
+ W=.2u         
R_U1_NAND9_R1         0 0  10Meg  
M_U1_NAND9_M5         U1_N10169 0 N02078 N02078 CMOSP  
+ L=.18u  
+ W=.2u         
R_U1_NAND9_R2         0 N02078  10Meg  
M_U1_NAND9_M6         U1_N10169 0 U1_NAND9_N28600 0 CMOSN  
+ L=.18u  
+ W=.18u         
M_U1_NAND9_M2         U1_NAND9_N28600 N02078 0 0 CMOSN  
+ L=.18u  
+ W=.18u         
M_U1_NAND9_M4         U1_N10169 N02078 N02078 N02078 CMOSP  
+ L=.18u  
+ W=.2u         
R_U1_NAND54_R1         0 0  10Meg  
M_U1_NAND54_M5         U1_N64662 0 N02078 N02078 CMOSP  
+ L=.18u  
+ W=.2u         
R_U1_NAND54_R2         0 N02078  10Meg  
M_U1_NAND54_M6         U1_N64662 0 U1_NAND54_N28600 0 CMOSN  
+ L=.18u  
+ W=.18u         
M_U1_NAND54_M2         U1_NAND54_N28600 N02078 0 0 CMOSN  
+ L=.18u  
+ W=.18u         
M_U1_NAND54_M4         U1_N64662 N02078 N02078 N02078 CMOSP  
+ L=.18u  
+ W=.2u         
R_U1_R2         U1_N11766 MSB  1  
M_U1_8NAND_M9         U1_N160424 U1_N10484 N02078 N02078 CMOSP  
+ L=.18u  
+ W=.2u         
M_U1_8NAND_M12         U1_N160424 U1_N10700 N02078 N02078 CMOSP  
+ L=.18u  
+ W=.2u         
M_U1_8NAND_M1         U1_N160424 U1_N08942 U1_8NAND_N64523 0 CMOSN  
+ L=.18u  
+ W=.18u         
M_U1_8NAND_M15         U1_8NAND_N64887 U1_N09965 0 0 CMOSN  
+ L=.18u  
+ W=.18u         
M_U1_8NAND_M6         U1_8NAND_N64745 U1_N09575 U1_8NAND_N64785 0 CMOSN  
+ L=.18u  
+ W=.18u         
M_U1_8NAND_M2         U1_8NAND_N64523 U1_N09389 U1_8NAND_N64745 0 CMOSN  
+ L=.18u  
+ W=.18u         
M_U1_8NAND_M13         U1_8NAND_N64235 U1_N10484 U1_8NAND_N64241 0 CMOSN  
+ L=.18u  
+ W=.18u         
M_U1_8NAND_M10         U1_8NAND_N63965 U1_N10700 U1_8NAND_N64235 0 CMOSN  
+ L=.18u  
+ W=.18u         
R_U1_8NAND_R1         U1_N08942 0  10Meg  
M_U1_8NAND_M16         U1_N160424 U1_N09767 N02078 N02078 CMOSP  
+ L=.18u  
+ W=.2u         
M_U1_8NAND_M3         U1_N160424 U1_N09389 N02078 N02078 CMOSP  
+ L=.18u  
+ W=.2u         
M_U1_8NAND_M14         U1_8NAND_N64241 U1_N10169 U1_8NAND_N64887 0 CMOSN  
+ L=.18u  
+ W=.18u         
R_U1_8NAND_R2         U1_N09389 0  10Meg  
R_U1_8NAND_R6         U1_N10484 0  10Meg  
M_U1_8NAND_M8         U1_N160424 U1_N10169 N02078 N02078 CMOSP  
+ L=.18u  
+ W=.2u         
M_U1_8NAND_M4         U1_N160424 U1_N09575 N02078 N02078 CMOSP  
+ L=.18u  
+ W=.2u         
R_U1_8NAND_R3         U1_N09575 0  10Meg  
R_U1_8NAND_R8         U1_N09965 0  10Meg  
R_U1_8NAND_R7         U1_N10169 0  10Meg  
M_U1_8NAND_M7         U1_8NAND_N64785 U1_N09767 U1_8NAND_N63965 0 CMOSN  
+ L=.18u  
+ W=.18u         
R_U1_8NAND_R4         U1_N09767 0  10Meg  
R_U1_8NAND_R5         U1_N10700 0  10Meg  
M_U1_8NAND_M11         U1_N160424 U1_N08942 N02078 N02078 CMOSP  
+ L=.18u  
+ W=.2u         
M_U1_8NAND_M5         U1_N160424 U1_N09965 N02078 N02078 CMOSP  
+ L=.18u  
+ W=.2u         
M_U1_INVERSOR4_M5         U1_N35491 U1_N31443 N02078 N02078 CMOSP  
+ L=.18u  
+ W=.2u         
M_U1_INVERSOR4_M6         U1_N35491 U1_N31443 0 0 CMOSN  
+ L=.18u  
+ W=.18u         
R_U1_INVERSOR4_R1         0 U1_N31443  10Meg  
R_U1_NAND49_R1         0 0  10Meg  
M_U1_NAND49_M5         U1_N41761 0 N02078 N02078 CMOSP  
+ L=.18u  
+ W=.2u         
R_U1_NAND49_R2         0 N02078  10Meg  
M_U1_NAND49_M6         U1_N41761 0 U1_NAND49_N28600 0 CMOSN  
+ L=.18u  
+ W=.18u         
M_U1_NAND49_M2         U1_NAND49_N28600 N02078 0 0 CMOSN  
+ L=.18u  
+ W=.18u         
M_U1_NAND49_M4         U1_N41761 N02078 N02078 N02078 CMOSP  
+ L=.18u  
+ W=.2u         
R_U1_NAND14_R1         0 -V12  10Meg  
M_U1_NAND14_M5         U1_N20338 -V12 N02078 N02078 CMOSP  
+ L=.18u  
+ W=.2u         
R_U1_NAND14_R2         0 V14  10Meg  
M_U1_NAND14_M6         U1_N20338 -V12 U1_NAND14_N28600 0 CMOSN  
+ L=.18u  
+ W=.18u         
M_U1_NAND14_M2         U1_NAND14_N28600 V14 0 0 CMOSN  
+ L=.18u  
+ W=.18u         
M_U1_NAND14_M4         U1_N20338 V14 N02078 N02078 CMOSP  
+ L=.18u  
+ W=.2u         
M_U1_INVERSOR12_M5         3SB U1_N160548 N02078 N02078 CMOSP  
+ L=.18u  
+ W=.2u         
M_U1_INVERSOR12_M6         3SB U1_N160548 0 0 CMOSN  
+ L=.18u  
+ W=.18u         
R_U1_INVERSOR12_R1         0 U1_N160548  10Meg  
R_U1_NAND55_R1         0 0  10Meg  
M_U1_NAND55_M5         U1_N64650 0 N02078 N02078 CMOSP  
+ L=.18u  
+ W=.2u         
R_U1_NAND55_R2         0 N02078  10Meg  
M_U1_NAND55_M6         U1_N64650 0 U1_NAND55_N28600 0 CMOSN  
+ L=.18u  
+ W=.18u         
M_U1_NAND55_M2         U1_NAND55_N28600 N02078 0 0 CMOSN  
+ L=.18u  
+ W=.18u         
M_U1_NAND55_M4         U1_N64650 N02078 N02078 N02078 CMOSP  
+ L=.18u  
+ W=.2u         
M_U1_INVERSOR6_M5         U1_N108976 U1_X1 N02078 N02078 CMOSP  
+ L=.18u  
+ W=.2u         
M_U1_INVERSOR6_M6         U1_N108976 U1_X1 0 0 CMOSN  
+ L=.18u  
+ W=.18u         
R_U1_INVERSOR6_R1         0 U1_X1  10Meg  
R_U1_NAND40_R1         0 0  10Meg  
M_U1_NAND40_M5         U1_N41467 0 N02078 N02078 CMOSP  
+ L=.18u  
+ W=.2u         
R_U1_NAND40_R2         0 N02078  10Meg  
M_U1_NAND40_M6         U1_N41467 0 U1_NAND40_N28600 0 CMOSN  
+ L=.18u  
+ W=.18u         
M_U1_NAND40_M2         U1_NAND40_N28600 N02078 0 0 CMOSN  
+ L=.18u  
+ W=.18u         
M_U1_NAND40_M4         U1_N41467 N02078 N02078 N02078 CMOSP  
+ L=.18u  
+ W=.2u         
R_R1         MSB N02078  100k  
R_R6         LSB N02078  100k  
R_R2         5SB N02078  100k  
R_R3         4SB N02078  100k  
R_R4         3SB N02078  100k  
R_R5         2SB N02078  100k  

**** RESUMING transient.cir ****
.END

WARNING -- Mosfet M_U1_NAND43_M5, model CMOSP: Pd = 0 is less than W
WARNING -- Mosfet M_U1_NAND43_M5, model CMOSP: Ps = 0 is less than W
WARNING -- Mosfet M_U1_NAND43_M6, model CMOSN: Pd = 0 is less than W
WARNING -- Mosfet M_U1_NAND43_M6, model CMOSN: Ps = 0 is less than W
**** 01/30/10 17:14:53 ******* PSpice 10.5.0 (Jan 2005) ******* ID# 0 ********

 ** Profile: "TEST-transient"  [ D:\Documents\TESIS\TRUNK\Design\I-DECODER-001\OrCAD\I-DECODER-6BITS\i-decoder-6bits-pspicefiles\test


 ****     MOSFET MODEL PARAMETERS


******************************************************************************




               CMOSP           CMOSN           
               PMOS            NMOS            
  T_Measured   27              27            
   T_Current   27              27            
       LEVEL    7               7            
           L  100.000000E-06  100.000000E-06 
           W  100.000000E-06  100.000000E-06 
         VTO    -.413091         .294194     
          KP  460.419200E-06  460.419200E-06 
       GAMMA    0               0            
      LAMBDA    0               0            
         RSH    5.9             6.2          
          IS    1.000000E-15    1.000000E-15 
          JS  100.000000E-06  100.000000E-06 
          PB     .821464         .99         
        PBSW     .8008           .8          
          CJ    1.165977E-03  815.244000E-06 
        CJSW  122.005600E-12  165.796200E-12 
          MJ     .425655         .610228     
        MJSW     .1001           .163262     
        CGSO  500.000000E-12  500.000000E-12 
        CGDO  500.000000E-12  500.000000E-12 
        CGBO    1.000000E-12    1.000000E-12 
         TOX    4.500000E-09    4.500000E-09 
          XJ  100.000000E-09  100.000000E-09 
       UCRIT   10.000000E+03   10.000000E+03 
       DELTA     .01             .01         
      DIOMOD    2               2            
          K1     .59909          .541355     
          K2 -669.794000E-09    -.032332     
        LETA    0               0            
        WETA    0               0            
          U0  118.3014        269.8792       
       XPART     .5              .5          
        VTH0    -.413091         .294194     
          K3     .080859        1.000406E-03 
          W0    1.000000E-06  100.000000E-09 
         NLX   25.530790E-09  206.491900E-09 
        DVT0     .819884         .565214     
        DVT1     .744212         .260305     
          UA    1.535614E-09   -1.619209E-09 
          UB    1.000000E-21    2.953688E-18 
          UC -100.000000E-12   57.637850E-12 
        VSAT  173.454300E+03  106.504000E+03 
        RDSW  677.8533        150            
        VOFF    -.142681        -.09299      
     NFACTOR     .94145         2.044734     
        PCLM     .334199        1.968647     
      PDIBL1     .132793        1            
      PDIBL2    9.825629E-03    -.072042     
       DROUT     .81589         1            
      PSCBE1    3.057881E+09    2.350722E+09 
      PSCBE2    5.892816E-09  508.313600E-12 
          A0     .926787        1.425322     
          A1     .01033          .023731     
          A2     .752154         .550469     
       NPEAK  415.890000E+15  235.490000E+15 
         LDD    0               0            
        LITL   36.742350E-09   36.742350E-09 
         UC1  -56.000000E-12  -56.000000E-12 
        PVAG     .122566                     
        KETA     .022875        -.016685     
        ETA0    1.263659E-03    6.051176E-03 
        ETAB   -2.195822E-03 -858.512600E-06 
         K3B   19.71403         5.01511      
        DVT2    -.3             -.067374     
        DSUB    4.891602E-03    3.642935E-03 
         AGS     .166834         .37123      
       DVT1W    0               0            
       DVT2W    0               0            
        PRWG    -.054897         .34061      
        PRWB    -.5             -.183689     
     PDIBLCB   -1.000000E-03    -.1          
         DWG  -25.031010E-09    5.313945E-09 
         DWB  -12.379610E-09   13.440770E-09 
          B0    1.874426E-06  -23.699750E-09 
          B1    5.000000E-06                 
        LINT   27.788770E-09   20.673220E-09 
        WINT                   12.447730E-09 
         DLC   27.788770E-09   20.673220E-09 
         DWC    0              12.447730E-09 
          CF    0               0            
        NOIA    9.900001E+18  100.000000E+18 
        NOIB    2.400000E+03   50.000000E+03 
        NOIC    1.400000E-12   -1.400000E-12 
       LKETA    -.010867      399.601500E-06 
       WKETA     .03239         3.401938E-03 
       PVSAT   50             790.3922       
       PKETA   -6.167985E-03    -.014873     
       PVTH0    1.001339E-03   -4.814415E-03 
         PUA  362.786900E-12  -31.414400E-12 
         PU0    7.380991       -4.028575     
       PRDSW   -5              -2.504635     
       PETA0  100.000000E-06  -67.588480E-06 
         PK2   30.964830E-06    3.159047E-03 
         VTM     .025864         .025864     
       PBSWG     .8008           .8          
       MJSWG     .1001           .163262     
       CJSWG  422.000000E-12  330.000000E-12 


WARNING -- Mosfet M_U1_NAND43_M5, model CMOSP: Pd = 0 is less than W
WARNING -- Mosfet M_U1_NAND43_M5, model CMOSP: Ps = 0 is less than W
WARNING -- Mosfet M_U1_NAND43_M6, model CMOSN: Pd = 0 is less than W
WARNING -- Mosfet M_U1_NAND43_M6, model CMOSN: Ps = 0 is less than W
WARNING -- Pulse Period < (Rise Time + Fall Time + Pulse Width) for V_SENALES_V15
ERROR -- Convergence problem in transient bias point calculation


  Last node voltages tried were:

 NODE   VOLTAGE     NODE   VOLTAGE     NODE   VOLTAGE     NODE   VOLTAGE


(   V1) 30.00E-06  (   V2) 30.00E-06  (   V3) 30.00E-06  (   V4) 30.00E-06      

(   V5) 30.00E-06  (   V6) 30.00E-06  (   V7) 30.00E-06  (   V8) 30.00E-06      

(   V9) 30.00E-06  (  -V2)    0.0000  (  -V4)    0.0000  (  -V6)    0.0000      

(  -V8)    0.0000  (  2SB) 32.99E-06  (  3SB) 32.98E-06  (  4SB) 33.00E-06      

(  5SB) 32.99E-06  (  LSB) 33.00E-06  (  MSB) 33.00E-06  (  V10) 30.00E-06      

(  V11) 30.00E-06  (  V12) 30.00E-06  (  V13) 30.00E-06  (  V14) 30.00E-06      

(  V15) 30.00E-06  ( -V10)    0.0000  ( -V12)    0.0000  ( -V14)    0.0000      

(U1_X1) 611.1E-09  (U1_X2) 611.1E-09  (U1_X3) 611.1E-09  (U1_X4)     .6751      

(N02078) 33.00E-06 (U1_N04951) 74.36E-09                 (U1_N05087) 152.0E-09  

(U1_N06051) 74.37E-09                 (U1_N06203) 152.0E-09                     

(U1_N06361) 152.0E-09                 (U1_N06686) 152.0E-09                     

(U1_N08942) 74.37E-09                 (U1_N09389) 152.1E-09                     

(U1_N09575) 152.0E-09                 (U1_N09767) 152.0E-09                     

(U1_N09965) 152.0E-09                 (U1_N10169) 152.0E-09                     

(U1_N10484) 152.0E-09                 (U1_N10700) 152.0E-09                     

(U1_N11766) 33.00E-06                 (U1_N19319) 74.37E-09                     

(U1_N19603) 152.1E-09                 (U1_N20038) 152.1E-09                     

(U1_N20338) 152.1E-09                 (U1_N20646) 152.0E-09                     

(U1_N20962) 152.0E-09                 (U1_N21286) 152.0E-09                     

(U1_N21618) 152.0E-09                 (U1_N21958) 152.0E-09                     

(U1_N22306) 152.0E-09                 (U1_N22662) 152.0E-09                     

(U1_N23026) 152.0E-09                 (U1_N23398) 152.0E-09                     

(U1_N23778) 152.0E-09                 (U1_N24166) 152.0E-09                     

(U1_N24562) 152.0E-09                 (U1_N31443) 611.1E-09                     

(U1_N32124)     .5069                 (U1_N35491) 74.44E-09                     

(U1_N38273) 74.37E-09                 (U1_N38573) 152.1E-09                     

(U1_N38957) 152.1E-09                 (U1_N39377) 152.1E-09                     

(U1_N39698) 152.1E-09                 (U1_N39974) 152.1E-09                     

(U1_N40258) 152.1E-09                 (U1_N40550) 152.1E-09                     

(U1_N41431) 152.0E-09                 (U1_N41443) 152.0E-09                     

(U1_N41455) 152.0E-09                 (U1_N41467) 152.0E-09                     

(U1_N41479) 152.0E-09                 (U1_N41491) 152.0E-09                     

(U1_N41761) 152.0E-09                 (U1_N41773) 152.0E-09                     

(U1_N42515) 152.0E-09                 (U1_N42527) 152.0E-09                     

(U1_N42539) 152.0E-09                 (U1_N42551) 152.0E-09                     

(U1_N42563) 152.0E-09                 (U1_N42575) 152.0E-09                     

(U1_N42845) 152.0E-09                 (U1_N42857) 152.0E-09                     

(U1_N64602) 152.0E-09                 (U1_N64614) 152.0E-09                     

(U1_N64626) 152.0E-09                 (U1_N64638) 152.0E-09                     

(U1_N64650) 152.0E-09                 (U1_N64662) 152.0E-09                     

(U1_N64910) 152.0E-09                 (U1_N64930) 152.0E-09                     

(U1_N108976) 74.44E-09                (U1_N109656) 74.44E-09                    

(U1_N110256) 1.214E-12                (U1_N110748) 74.44E-09                    

(U1_N115981) 5.748E-12                (U1_N160424) 611.1E-09                    

(U1_N160548) 74.44E-09                (U1_NAND_N28600) 75.97E-09                

(U1_4NAND_N36892) 24.73E-06           (U1_4NAND_N37188) 16.47E-06               

(U1_4NAND_N37228) 8.234E-06           (U1_8NAND_N63965) 304.2E-09               

(U1_8NAND_N64235) 228.0E-09           (U1_8NAND_N64241) 151.9E-09               

(U1_8NAND_N64523) 533.9E-09           (U1_8NAND_N64745) 457.1E-09               

(U1_8NAND_N64785) 380.5E-09           (U1_8NAND_N64887) 75.94E-09               

(U1_NAND1_N28600) 75.97E-09           (U1_NAND2_N28600) 75.97E-09               

(U1_NAND3_N28600) 75.97E-09           (U1_NAND4_N28600) 75.97E-09               

(U1_NAND5_N28600) 75.97E-09           (U1_NAND6_N28600) 75.97E-09               

(U1_NAND7_N28600) 75.97E-09           (U1_NAND8_N28600) 75.97E-09               

(U1_NAND9_N28600) 75.97E-09           (U1_4NAND1_N36892) 24.73E-06              

(U1_4NAND1_N37188) 16.47E-06          (U1_4NAND1_N37228) 8.234E-06              

(U1_8NAND1_N63965) 304.2E-09          (U1_8NAND1_N64235) 228.0E-09              

(U1_8NAND1_N64241) 151.9E-09          (U1_8NAND1_N64523) 533.9E-09              

(U1_8NAND1_N64745) 457.1E-09          (U1_8NAND1_N64785) 380.5E-09              

(U1_8NAND1_N64887) 75.94E-09          (U1_8NAND2_N63965)    -.0100              

(U1_8NAND2_N64235)    -.0100          (U1_8NAND2_N64241)    -.0737              

(U1_8NAND2_N64523)    -.0100          (U1_8NAND2_N64745)    -.0100              

(U1_8NAND2_N64785)    -.0100          (U1_8NAND2_N64887)    -.9167              

(U1_8NAND3_N63965) 304.2E-09          (U1_8NAND3_N64235) 228.0E-09              

(U1_8NAND3_N64241) 151.9E-09          (U1_8NAND3_N64523) 533.9E-09              

(U1_8NAND3_N64745) 457.1E-09          (U1_8NAND3_N64785) 380.5E-09              

(U1_8NAND3_N64887) 75.94E-09          (U1_8NAND4_N63965) 304.2E-09              

(U1_8NAND4_N64235) 228.0E-09          (U1_8NAND4_N64241) 151.9E-09              

(U1_8NAND4_N64523) 533.9E-09          (U1_8NAND4_N64745) 457.1E-09              

(U1_8NAND4_N64785) 380.5E-09          (U1_8NAND4_N64887) 75.94E-09              

(U1_8NAND5_N63965) 304.2E-09          (U1_8NAND5_N64235) 228.0E-09              

(U1_8NAND5_N64241) 151.9E-09          (U1_8NAND5_N64523) 533.9E-09              

(U1_8NAND5_N64745) 457.1E-09          (U1_8NAND5_N64785) 380.5E-09              

(U1_8NAND5_N64887) 75.94E-09          (U1_8NAND6_N63965)    -.4841              

(U1_8NAND6_N64235)    -.0077          (U1_8NAND6_N64241)    2.3075              

(U1_8NAND6_N64523)    3.8951          (U1_8NAND6_N64745)    -.7512              

(U1_8NAND6_N64785)    -.3568          (U1_8NAND6_N64887)    1.6259              

(U1_NAND10_N28600) 75.97E-09          (U1_NAND11_N28600) 16.49E-06              

(U1_NAND12_N28600) 75.97E-09          (U1_NAND13_N28600) 75.97E-09              

(U1_NAND14_N28600) 75.97E-09          (U1_NAND15_N28600) 75.97E-09              

(U1_NAND16_N28600) 75.97E-09          (U1_NAND17_N28600) 75.97E-09              

(U1_NAND18_N28600) 75.97E-09          (U1_NAND19_N28600) 75.97E-09              

(U1_NAND20_N28600) 75.97E-09          (U1_NAND21_N28600) 75.97E-09              

(U1_NAND22_N28600) 75.97E-09          (U1_NAND23_N28600) 75.97E-09              

(U1_NAND24_N28600) 75.97E-09          (U1_NAND25_N28600) 75.97E-09              

(U1_NAND26_N28600) 75.97E-09          (U1_NAND27_N28600) 16.49E-06              

(U1_NAND28_N28600) 75.97E-09          (U1_NAND29_N28600) 75.97E-09              

(U1_NAND30_N28600) 75.97E-09          (U1_NAND31_N28600) 75.97E-09              

(U1_NAND32_N28600) 75.97E-09          (U1_NAND33_N28600) 75.97E-09              

(U1_NAND34_N28600) 75.97E-09          (U1_NAND35_N28600) 75.97E-09              

(U1_NAND36_N28600) 75.97E-09          (U1_NAND37_N28600) 75.97E-09              

(U1_NAND38_N28600) 75.97E-09          (U1_NAND39_N28600) 75.97E-09              

(U1_NAND40_N28600) 75.97E-09          (U1_NAND41_N28600) 75.97E-09              

(U1_NAND42_N28600) 75.97E-09          (U1_NAND43_N28600) 75.97E-09              

(U1_NAND44_N28600) 75.97E-09          (U1_NAND45_N28600) 75.97E-09              

(U1_NAND46_N28600) 75.97E-09          (U1_NAND47_N28600) 75.97E-09              

(U1_NAND48_N28600) 75.97E-09          (U1_NAND49_N28600) 75.97E-09              

(U1_NAND50_N28600) 75.97E-09          (U1_NAND51_N28600) 75.97E-09              

(U1_NAND52_N28600) 75.97E-09          (U1_NAND53_N28600) 75.97E-09              

(U1_NAND54_N28600) 75.97E-09          (U1_NAND55_N28600) 75.97E-09              

(U1_NAND56_N28600) 75.97E-09          (U1_NAND57_N28600) 75.97E-09              

(U1_NAND58_N28600) 75.97E-09          


  These voltages failed to converge:

    V(U1_X4)                  =   649.12mV  \   675.06mV
    V(U1_8NAND6_N64523)       =  -147.42mV  \     3.895V
    V(U1_8NAND6_N64887)       =    -1.030V  \     1.626V
    V(U1_8NAND6_N64745)       =  -725.30mV  \  -751.17mV
    V(U1_8NAND6_N64785)       =    -2.116V  \  -356.79mV
    V(U1_8NAND6_N64235)       =    -1.739V  \   -7.721mV
    V(U1_8NAND6_N64241)       =    -79.59V  \     2.308V
    V(U1_8NAND6_N63965)       =  -439.68mV  \  -484.06mV
    V(U1_N32124)              =   469.17mV  \   506.94mV
    V(U1_8NAND2_N64523)       =    32.51mV  \    -9.99mV
    V(U1_8NAND2_N64887)       =  -586.24mV  \  -916.68mV
    V(U1_8NAND2_N64745)       =    50.83mV  \   -10.00mV
    V(U1_8NAND2_N64785)       =    69.20mV  \   -10.00mV
    V(U1_8NAND2_N64235)       =   106.00mV  \   -10.01mV
    V(U1_8NAND2_N64241)       =   -31.12mV  \   -73.68mV
    V(U1_8NAND2_N63965)       =    87.60mV  \   -10.00mV

  These supply currents failed to converge:

    I(V_V1)                   =   -3.542uA  \  -755.58uA

  These devices failed to converge:
    M_U1_8NAND6_M9 M_U1_8NAND6_M12 M_U1_8NAND6_M1 M_U1_8NAND6_M15 
    M_U1_8NAND6_M6 M_U1_8NAND6_M2 M_U1_8NAND6_M13 M_U1_8NAND6_M10 
    M_U1_8NAND6_M16 M_U1_8NAND6_M3 M_U1_8NAND6_M14 M_U1_8NAND6_M8 
    M_U1_8NAND6_M4 M_U1_8NAND6_M7 M_U1_8NAND6_M11 M_U1_8NAND6_M5 M_U1_8NAND2_M9 
    M_U1_8NAND2_M12 M_U1_8NAND2_M1 M_U1_8NAND2_M15 M_U1_8NAND2_M6 
    M_U1_8NAND2_M2 M_U1_8NAND2_M13 M_U1_8NAND2_M10 M_U1_8NAND2_M16 
    M_U1_8NAND2_M3 M_U1_8NAND2_M14 M_U1_8NAND2_M8 M_U1_8NAND2_M4 M_U1_8NAND2_M7 
    M_U1_8NAND2_M11 M_U1_8NAND2_M5 

**** Interrupt ****
