
**** 08/06/10 20:46:16 ******* PSpice 16.0.0 (July 2006) ****** ID# 0 ********

 ** Profile: "TEST-transient"  [ D:\Documents\TESIS\fiocs\Design\I-DECODER-001\OrCAD\I-DECODER-6BITS\i-decoder-6bits-pspicefiles\test


 ****     CIRCUIT DESCRIPTION


******************************************************************************




** Creating circuit file "transient.cir" 
** WARNING: THIS AUTOMATICALLY GENERATED FILE MAY BE OVERWRITTEN BY SUBSEQUENT SIMULATIONS

*Libraries: 
* Profile Libraries :
* Local Libraries :
.LIB "../../../i-decoder-6bits-pspicefiles/i-decoder-6bits.lib" 
.LIB "C:/OrCAD/OrCAD_16.0/tools/capture/library/pspice/BREAKOUT.OLB" 
* From [PSPICE NETLIST] section of C:\OrCAD\OrCAD_16.0\tools\PSpice\PSpice.ini file:
.lib "nom.lib" 

*Analysis directives: 
.TRAN  0 3.5n 1.9n 1p 
.PROBE V(alias(*)) I(alias(*)) W(alias(*)) D(alias(*)) NOISE(alias(*)) 
.INC "..\TEST.net" 



**** INCLUDING TEST.net ****
* source I-DECODER-6BITS
V_V1         RAMPA 0  
+PULSE 3.3 0 2n 10p 10p 1n 
R_R12         N223789 0  1k  
R_R5         N09613 2SB  100k  
R_R19         N223781 0  1k  
R_R10         N2237811 0  1k  
R_R16         N223785 0  1k  
R_R14         N223787 0  1k  
R_R18         N223783 0  1k  
R_R8         N2237813 0  1k  
R_R20         N30773 0  1k  
M_U3_U31_M5         U3_ND2SB1 RAMPA N09613 N09613 CMOSP  
+ L=.25u  
+ W=.93u         
M_U3_U31_M6         U3_ND2SB1 RAMPA 0 0 CMOSN  
+ L=.43u  
+ W=.43u         
M_U3_U16_M5         U3_N565094 RAMPA N09613 N09613 CMOSP  
+ L=.25u  
+ W=.93u         
M_U3_U16_M6         U3_N565094 RAMPA 0 0 CMOSN  
+ L=.43u  
+ W=.43u         
M_U3_U91_M5         U3_NDLSB16 U3_N578578 N09613 N09613 CMOSP  
+ L=.186u  
+ W=.25u         
M_U3_U91_M6         U3_NDLSB16 U3_N578578 U3_U91_ND2 0 CMOSN  
+ L=.2u  
+ W=.232u         
M_U3_U91_M2         U3_U91_ND2 RAMPA 0 0 CMOSN  
+ L=.2u  
+ W=.232u         
M_U3_U91_M4         U3_NDLSB16 RAMPA N09613 N09613 CMOSP  
+ L=.186u  
+ W=.25u         
M_U3_U65_M5         U3_N568485 U3_N941987 N09613 N09613 CMOSP  
+ L=.25u  
+ W=.93u         
M_U3_U65_M6         U3_N568485 U3_N941987 0 0 CMOSN  
+ L=.43u  
+ W=.43u         
M_U3_U2_M5         U3_N259339 N09613 N09613 N09613 CMOSP  
+ L=.25u  
+ W=.93u         
M_U3_U2_M6         U3_N259339 N09613 0 0 CMOSN  
+ L=.43u  
+ W=.43u         
M_U3_U96_M5         U3_NDLSB11 U3_N578514 N09613 N09613 CMOSP  
+ L=.186u  
+ W=.25u         
M_U3_U96_M6         U3_NDLSB11 U3_N578514 U3_U96_ND2 0 CMOSN  
+ L=.2u  
+ W=.232u         
M_U3_U96_M2         U3_U96_ND2 RAMPA 0 0 CMOSN  
+ L=.2u  
+ W=.232u         
M_U3_U96_M4         U3_NDLSB11 RAMPA N09613 N09613 CMOSP  
+ L=.186u  
+ W=.25u         
M_U3_U109_M5         U3_N573020 N09613 N09613 N09613 CMOSP  
+ L=.25u  
+ W=.93u         
M_U3_U109_M6         U3_N573020 N09613 0 0 CMOSN  
+ L=.43u  
+ W=.43u         
M_U3_U57_M5         U3_ND2SB12 U3_N567821 N09613 N09613 CMOSP  
+ L=.186u  
+ W=.25u         
M_U3_U57_M6         U3_ND2SB12 U3_N567821 U3_U57_ND2 0 CMOSN  
+ L=.2u  
+ W=.232u         
M_U3_U57_M2         U3_U57_ND2 N09613 0 0 CMOSN  
+ L=.2u  
+ W=.232u         
M_U3_U57_M4         U3_ND2SB12 N09613 N09613 N09613 CMOSP  
+ L=.186u  
+ W=.25u         
M_U3_U28_M5         U3_ND3SB6 U3_N565120 N09613 N09613 CMOSP  
+ L=.186u  
+ W=.25u         
M_U3_U28_M6         U3_ND3SB6 U3_N565120 U3_U28_ND2 0 CMOSN  
+ L=.2u  
+ W=.232u         
M_U3_U28_M2         U3_U28_ND2 N09613 0 0 CMOSN  
+ L=.2u  
+ W=.232u         
M_U3_U28_M4         U3_ND3SB6 N09613 N09613 N09613 CMOSP  
+ L=.186u  
+ W=.25u         
M_U3_U139_M5         U3_NDX4LSB X4 N09613 N09613 CMOSP  
+ L=.25u  
+ W=.93u         
M_U3_U139_M6         U3_NDX4LSB X4 0 0 CMOSN  
+ L=.43u  
+ W=.43u         
M_U3_U74_M5         U3_N578674 RAMPA N09613 N09613 CMOSP  
+ L=.25u  
+ W=.93u         
M_U3_U74_M6         U3_N578674 RAMPA 0 0 CMOSN  
+ L=.43u  
+ W=.43u         
M_U3_U43_M5         U3_N567821 N09613 N09613 N09613 CMOSP  
+ L=.25u  
+ W=.93u         
M_U3_U43_M6         U3_N567821 N09613 0 0 CMOSN  
+ L=.43u  
+ W=.43u         
M_U3_U80_M5         U3_N578524 RAMPA N09613 N09613 CMOSP  
+ L=.25u  
+ W=.93u         
M_U3_U80_M6         U3_N578524 RAMPA 0 0 CMOSN  
+ L=.43u  
+ W=.43u         
M_U3_U14_M5         U3_ND3SB1 RAMPA N09613 N09613 CMOSP  
+ L=.25u  
+ W=.93u         
M_U3_U14_M6         U3_ND3SB1 RAMPA 0 0 CMOSN  
+ L=.43u  
+ W=.43u         
M_U3_U136_M5         U3_NDX1LSB X1 N09613 N09613 CMOSP  
+ L=.25u  
+ W=.93u         
M_U3_U136_M6         U3_NDX1LSB X1 0 0 CMOSN  
+ L=.43u  
+ W=.43u         
M_U3_U116_M5         U3_N573096 N09613 N09613 N09613 CMOSP  
+ L=.25u  
+ W=.93u         
M_U3_U116_M6         U3_N573096 N09613 0 0 CMOSN  
+ L=.43u  
+ W=.43u         
M_U3_U124_M5         U3_NDLSB24 U3_N572160 N09613 N09613 CMOSP  
+ L=.186u  
+ W=.25u         
M_U3_U124_M6         U3_NDLSB24 U3_N572160 U3_U124_ND2 0 CMOSN  
+ L=.2u  
+ W=.232u         
M_U3_U124_M2         U3_U124_ND2 N09613 0 0 CMOSN  
+ L=.2u  
+ W=.232u         
M_U3_U124_M4         U3_NDLSB24 N09613 N09613 N09613 CMOSP  
+ L=.186u  
+ W=.25u         
M_U3_U69_M5         U3_N578608 RAMPA N09613 N09613 CMOSP  
+ L=.25u  
+ W=.93u         
M_U3_U69_M6         U3_N578608 RAMPA 0 0 CMOSN  
+ L=.43u  
+ W=.43u         
M_U3_U86_M5         U3_NDLSB4 U3_N578636 N09613 N09613 CMOSP  
+ L=.186u  
+ W=.25u         
M_U3_U86_M6         U3_NDLSB4 U3_N578636 U3_U86_ND2 0 CMOSN  
+ L=.2u  
+ W=.232u         
M_U3_U86_M2         U3_U86_ND2 RAMPA 0 0 CMOSN  
+ L=.2u  
+ W=.232u         
M_U3_U86_M4         U3_NDLSB4 RAMPA N09613 N09613 CMOSP  
+ L=.186u  
+ W=.25u         
M_U3_U26_M5         U3_ND3SB4 U3_N565104 N09613 N09613 CMOSP  
+ L=.186u  
+ W=.25u         
M_U3_U26_M6         U3_ND3SB4 U3_N565104 U3_U26_ND2 0 CMOSN  
+ L=.2u  
+ W=.232u         
M_U3_U26_M2         U3_U26_ND2 RAMPA 0 0 CMOSN  
+ L=.2u  
+ W=.232u         
M_U3_U26_M4         U3_ND3SB4 RAMPA N09613 N09613 CMOSP  
+ L=.186u  
+ W=.25u         
M_U3_U103_M5         U3_N572104 N09613 N09613 N09613 CMOSP  
+ L=.25u  
+ W=.93u         
M_U3_U103_M6         U3_N572104 N09613 0 0 CMOSN  
+ L=.43u  
+ W=.43u         
M_U3_U37_M5         U3_N568555 RAMPA N09613 N09613 CMOSP  
+ L=.25u  
+ W=.93u         
M_U3_U37_M6         U3_N568555 RAMPA 0 0 CMOSN  
+ L=.43u  
+ W=.43u         
M_U3_U61_M5         U3_ND2SB16 U3_N567861 N09613 N09613 CMOSP  
+ L=.186u  
+ W=.25u         
M_U3_U61_M6         U3_ND2SB16 U3_N567861 U3_U61_ND2 0 CMOSN  
+ L=.2u  
+ W=.232u         
M_U3_U61_M2         U3_U61_ND2 N09613 0 0 CMOSN  
+ L=.2u  
+ W=.232u         
M_U3_U61_M4         U3_ND2SB16 N09613 N09613 N09613 CMOSP  
+ L=.186u  
+ W=.25u         
M_U3_U119_M5         U3_NDLSB19 U3_N572104 N09613 N09613 CMOSP  
+ L=.186u  
+ W=.25u         
M_U3_U119_M6         U3_NDLSB19 U3_N572104 U3_U119_ND2 0 CMOSN  
+ L=.2u  
+ W=.232u         
M_U3_U119_M2         U3_U119_ND2 N09613 0 0 CMOSN  
+ L=.2u  
+ W=.232u         
M_U3_U119_M4         U3_NDLSB19 N09613 N09613 N09613 CMOSP  
+ L=.186u  
+ W=.25u         
M_U3_U48_M5         U3_ND2SB3 U3_N568511 N09613 N09613 CMOSP  
+ L=.186u  
+ W=.25u         
M_U3_U48_M6         U3_ND2SB3 U3_N568511 U3_U48_ND2 0 CMOSN  
+ L=.2u  
+ W=.232u         
M_U3_U48_M2         U3_U48_ND2 RAMPA 0 0 CMOSN  
+ L=.2u  
+ W=.232u         
M_U3_U48_M4         U3_ND2SB3 RAMPA N09613 N09613 CMOSP  
+ L=.186u  
+ W=.25u         
M_U3_U64_M16         U3_N941987 U3_ND2SB12 N09613 N09613 CMOSP  
+ L=.67u  
+ W=.68u         
M_U3_U64_M5         U3_N941987 U3_ND2SB16 N09613 N09613 CMOSP  
+ L=.67u  
+ W=.68u         
M_U3_U64_M11         U3_N941987 U3_ND2SB9 N09613 N09613 CMOSP  
+ L=.67u  
+ W=.68u         
M_U3_U64_M9         U3_N941987 U3_ND2SB14 N09613 N09613 CMOSP  
+ L=.67u  
+ W=.68u         
M_U3_U64_M1         U3_N941987 U3_ND2SB9 U3_U64_ND2 0 CMOSN  
+ L=.18u  
+ W=2.55u         
M_U3_U64_M6         U3_U64_ND3 U3_ND2SB11 U3_U64_ND4 0 CMOSN  
+ L=.18u  
+ W=2.55u         
M_U3_U64_M7         U3_U64_ND4 U3_ND2SB12 U3_U64_ND5 0 CMOSN  
+ L=.18u  
+ W=2.55u         
M_U3_U64_M12         U3_N941987 U3_ND2SB13 N09613 N09613 CMOSP  
+ L=.67u  
+ W=.68u         
M_U3_U64_M2         U3_U64_ND2 U3_ND2SB10 U3_U64_ND3 0 CMOSN  
+ L=.18u  
+ W=2.55u         
M_U3_U64_M13         U3_U64_ND6 U3_ND2SB14 U3_U64_ND7 0 CMOSN  
+ L=.18u  
+ W=2.55u         
M_U3_U64_M10         U3_U64_ND5 U3_ND2SB13 U3_U64_ND6 0 CMOSN  
+ L=.18u  
+ W=2.55u         
M_U3_U64_M3         U3_N941987 U3_ND2SB10 N09613 N09613 CMOSP  
+ L=.67u  
+ W=.68u         
M_U3_U64_M14         U3_U64_ND7 U3_ND2SB15 U3_U64_ND8 0 CMOSN  
+ L=.18u  
+ W=2.55u         
M_U3_U64_M8         U3_N941987 U3_ND2SB15 N09613 N09613 CMOSP  
+ L=.67u  
+ W=.68u         
M_U3_U64_M4         U3_N941987 U3_ND2SB11 N09613 N09613 CMOSP  
+ L=.67u  
+ W=.68u         
M_U3_U64_M15         U3_U64_ND8 U3_ND2SB16 0 0 CMOSN  
+ L=.18u  
+ W=2.55u         
M_U3_U52_M5         U3_ND2SB7 U3_N568555 N09613 N09613 CMOSP  
+ L=.186u  
+ W=.25u         
M_U3_U52_M6         U3_ND2SB7 U3_N568555 U3_U52_ND2 0 CMOSN  
+ L=.2u  
+ W=.232u         
M_U3_U52_M2         U3_U52_ND2 RAMPA 0 0 CMOSN  
+ L=.2u  
+ W=.232u         
M_U3_U52_M4         U3_ND2SB7 RAMPA N09613 N09613 CMOSP  
+ L=.186u  
+ W=.25u         
M_U3_U108_M5         U3_N572160 N09613 N09613 N09613 CMOSP  
+ L=.25u  
+ W=.93u         
M_U3_U108_M6         U3_N572160 N09613 0 0 CMOSN  
+ L=.43u  
+ W=.43u         
M_U3_U35_M5         U3_N568535 RAMPA N09613 N09613 CMOSP  
+ L=.25u  
+ W=.93u         
M_U3_U35_M6         U3_N568535 RAMPA 0 0 CMOSN  
+ L=.43u  
+ W=.43u         
M_U3_U24_M5         U3_ND3SB2 U3_N565082 N09613 N09613 CMOSP  
+ L=.186u  
+ W=.25u         
M_U3_U24_M6         U3_ND3SB2 U3_N565082 U3_U24_ND2 0 CMOSN  
+ L=.2u  
+ W=.232u         
M_U3_U24_M2         U3_U24_ND2 RAMPA 0 0 CMOSN  
+ L=.2u  
+ W=.232u         
M_U3_U24_M4         U3_ND3SB2 RAMPA N09613 N09613 CMOSP  
+ L=.186u  
+ W=.25u         
M_U3_U135_M16         X4 U3_NDLSB28 N09613 N09613 CMOSP  
+ L=.67u  
+ W=.68u         
M_U3_U135_M5         X4 U3_NDLSB32 N09613 N09613 CMOSP  
+ L=.67u  
+ W=.68u         
M_U3_U135_M11         X4 U3_NDLSB25 N09613 N09613 CMOSP  
+ L=.67u  
+ W=.68u         
M_U3_U135_M9         X4 U3_NDLSB30 N09613 N09613 CMOSP  
+ L=.67u  
+ W=.68u         
M_U3_U135_M1         X4 U3_NDLSB25 U3_U135_ND2 0 CMOSN  
+ L=.18u  
+ W=2.55u         
M_U3_U135_M6         U3_U135_ND3 U3_NDLSB27 U3_U135_ND4 0 CMOSN  
+ L=.18u  
+ W=2.55u         
M_U3_U135_M7         U3_U135_ND4 U3_NDLSB28 U3_U135_ND5 0 CMOSN  
+ L=.18u  
+ W=2.55u         
M_U3_U135_M12         X4 U3_NDLSB29 N09613 N09613 CMOSP  
+ L=.67u  
+ W=.68u         
M_U3_U135_M2         U3_U135_ND2 U3_NDLSB26 U3_U135_ND3 0 CMOSN  
+ L=.18u  
+ W=2.55u         
M_U3_U135_M13         U3_U135_ND6 U3_NDLSB30 U3_U135_ND7 0 CMOSN  
+ L=.18u  
+ W=2.55u         
M_U3_U135_M10         U3_U135_ND5 U3_NDLSB29 U3_U135_ND6 0 CMOSN  
+ L=.18u  
+ W=2.55u         
M_U3_U135_M3         X4 U3_NDLSB26 N09613 N09613 CMOSP  
+ L=.67u  
+ W=.68u         
M_U3_U135_M14         U3_U135_ND7 U3_NDLSB31 U3_U135_ND8 0 CMOSN  
+ L=.18u  
+ W=2.55u         
M_U3_U135_M8         X4 U3_NDLSB31 N09613 N09613 CMOSP  
+ L=.67u  
+ W=.68u         
M_U3_U135_M4         X4 U3_NDLSB27 N09613 N09613 CMOSP  
+ L=.67u  
+ W=.68u         
M_U3_U135_M15         U3_U135_ND8 U3_NDLSB32 0 0 CMOSN  
+ L=.18u  
+ W=2.55u         
M_U3_U115_M5         U3_N573086 N09613 N09613 N09613 CMOSP  
+ L=.25u  
+ W=.93u         
M_U3_U115_M6         U3_N573086 N09613 0 0 CMOSN  
+ L=.43u  
+ W=.43u         
M_U3_U90_M5         U3_NDLSB8 U3_N578686 N09613 N09613 CMOSP  
+ L=.186u  
+ W=.25u         
M_U3_U90_M6         U3_NDLSB8 U3_N578686 U3_U90_ND2 0 CMOSN  
+ L=.2u  
+ W=.232u         
M_U3_U90_M2         U3_U90_ND2 RAMPA 0 0 CMOSN  
+ L=.2u  
+ W=.232u         
M_U3_U90_M4         U3_NDLSB8 RAMPA N09613 N09613 CMOSP  
+ L=.186u  
+ W=.25u         
M_U3_U95_M5         U3_NDLSB12 U3_N578524 N09613 N09613 CMOSP  
+ L=.186u  
+ W=.25u         
M_U3_U95_M6         U3_NDLSB12 U3_N578524 U3_U95_ND2 0 CMOSN  
+ L=.2u  
+ W=.232u         
M_U3_U95_M2         U3_U95_ND2 RAMPA 0 0 CMOSN  
+ L=.2u  
+ W=.232u         
M_U3_U95_M4         U3_NDLSB12 RAMPA N09613 N09613 CMOSP  
+ L=.186u  
+ W=.25u         
M_U3_U133_M5         U3_NDLSB25 U3_N573020 N09613 N09613 CMOSP  
+ L=.186u  
+ W=.25u         
M_U3_U133_M6         U3_NDLSB25 U3_N573020 U3_U133_ND2 0 CMOSN  
+ L=.2u  
+ W=.232u         
M_U3_U133_M2         U3_U133_ND2 N09613 0 0 CMOSN  
+ L=.2u  
+ W=.232u         
M_U3_U133_M4         U3_NDLSB25 N09613 N09613 N09613 CMOSP  
+ L=.186u  
+ W=.25u         
M_U3_U79_M5         U3_N578534 RAMPA N09613 N09613 CMOSP  
+ L=.25u  
+ W=.93u         
M_U3_U79_M6         U3_N578534 RAMPA 0 0 CMOSN  
+ L=.43u  
+ W=.43u         
M_U3_U42_M5         U3_N567831 N09613 N09613 N09613 CMOSP  
+ L=.25u  
+ W=.93u         
M_U3_U42_M6         U3_N567831 N09613 0 0 CMOSN  
+ L=.43u  
+ W=.43u         
M_U3_U73_M5         U3_N578662 RAMPA N09613 N09613 CMOSP  
+ L=.25u  
+ W=.93u         
M_U3_U73_M6         U3_N578662 RAMPA 0 0 CMOSN  
+ L=.43u  
+ W=.43u         
M_U3_U9_M5         U3_ND4SB3 U3_N259543 N09613 N09613 CMOSP  
+ L=.186u  
+ W=.25u         
M_U3_U9_M6         U3_ND4SB3 U3_N259543 U3_U9_ND2 0 CMOSN  
+ L=.2u  
+ W=.232u         
M_U3_U9_M2         U3_U9_ND2 N09613 0 0 CMOSN  
+ L=.2u  
+ W=.232u         
M_U3_U9_M4         U3_ND4SB3 N09613 N09613 N09613 CMOSP  
+ L=.186u  
+ W=.25u         
M_U3_U128_M5         MSB U3_N1033696 N09613 N09613 CMOSP  
+ L=.25u  
+ W=.93u         
M_U3_U128_M6         MSB U3_N1033696 0 0 CMOSN  
+ L=.43u  
+ W=.43u         
M_U3_U56_M5         U3_ND2SB11 U3_N567811 N09613 N09613 CMOSP  
+ L=.186u  
+ W=.25u         
M_U3_U56_M6         U3_ND2SB11 U3_N567811 U3_U56_ND2 0 CMOSN  
+ L=.2u  
+ W=.232u         
M_U3_U56_M2         U3_U56_ND2 N09613 0 0 CMOSN  
+ L=.2u  
+ W=.232u         
M_U3_U56_M4         U3_ND2SB11 N09613 N09613 N09613 CMOSP  
+ L=.186u  
+ W=.25u         
M_U3_U23_M5         3SB U3_N565340 N09613 N09613 CMOSP  
+ L=.25u  
+ W=.93u         
M_U3_U23_M6         3SB U3_N565340 0 0 CMOSN  
+ L=.43u  
+ W=.43u         
M_U3_U66_M5         U3_N1033696 N09613 N09613 N09613 CMOSP  
+ L=.25u  
+ W=.93u         
M_U3_U66_M6         U3_N1033696 N09613 0 0 CMOSN  
+ L=.43u  
+ W=.43u         
M_U3_U123_M5         U3_NDLSB23 U3_N572144 N09613 N09613 CMOSP  
+ L=.186u  
+ W=.25u         
M_U3_U123_M6         U3_NDLSB23 U3_N572144 U3_U123_ND2 0 CMOSN  
+ L=.2u  
+ W=.232u         
M_U3_U123_M2         U3_U123_ND2 N09613 0 0 CMOSN  
+ L=.2u  
+ W=.232u         
M_U3_U123_M4         U3_NDLSB23 N09613 N09613 N09613 CMOSP  
+ L=.186u  
+ W=.25u         
M_U3_U63_M16         U3_N567419 U3_ND2SB4 N09613 N09613 CMOSP  
+ L=.67u  
+ W=.68u         
M_U3_U63_M5         U3_N567419 U3_ND2SB8 N09613 N09613 CMOSP  
+ L=.67u  
+ W=.68u         
M_U3_U63_M11         U3_N567419 U3_ND2SB1 N09613 N09613 CMOSP  
+ L=.67u  
+ W=.68u         
M_U3_U63_M9         U3_N567419 U3_ND2SB6 N09613 N09613 CMOSP  
+ L=.67u  
+ W=.68u         
M_U3_U63_M1         U3_N567419 U3_ND2SB1 U3_U63_ND2 0 CMOSN  
+ L=.18u  
+ W=2.55u         
M_U3_U63_M6         U3_U63_ND3 U3_ND2SB3 U3_U63_ND4 0 CMOSN  
+ L=.18u  
+ W=2.55u         
M_U3_U63_M7         U3_U63_ND4 U3_ND2SB4 U3_U63_ND5 0 CMOSN  
+ L=.18u  
+ W=2.55u         
M_U3_U63_M12         U3_N567419 U3_ND2SB5 N09613 N09613 CMOSP  
+ L=.67u  
+ W=.68u         
M_U3_U63_M2         U3_U63_ND2 U3_ND2SB2 U3_U63_ND3 0 CMOSN  
+ L=.18u  
+ W=2.55u         
M_U3_U63_M13         U3_U63_ND6 U3_ND2SB6 U3_U63_ND7 0 CMOSN  
+ L=.18u  
+ W=2.55u         
M_U3_U63_M10         U3_U63_ND5 U3_ND2SB5 U3_U63_ND6 0 CMOSN  
+ L=.18u  
+ W=2.55u         
M_U3_U63_M3         U3_N567419 U3_ND2SB2 N09613 N09613 CMOSP  
+ L=.67u  
+ W=.68u         
M_U3_U63_M14         U3_U63_ND7 U3_ND2SB7 U3_U63_ND8 0 CMOSN  
+ L=.18u  
+ W=2.55u         
M_U3_U63_M8         U3_N567419 U3_ND2SB7 N09613 N09613 CMOSP  
+ L=.67u  
+ W=.68u         
M_U3_U63_M4         U3_N567419 U3_ND2SB3 N09613 N09613 CMOSP  
+ L=.67u  
+ W=.68u         
M_U3_U63_M15         U3_U63_ND8 U3_ND2SB8 0 0 CMOSN  
+ L=.18u  
+ W=2.55u         
M_U3_U21_M5         U3_N564924 N09613 N09613 N09613 CMOSP  
+ L=.25u  
+ W=.93u         
M_U3_U21_M6         U3_N564924 N09613 0 0 CMOSN  
+ L=.43u  
+ W=.43u         
M_U3_U134_M16         X3 U3_NDLSB20 N09613 N09613 CMOSP  
+ L=.67u  
+ W=.68u         
M_U3_U134_M5         X3 U3_NDLSB24 N09613 N09613 CMOSP  
+ L=.67u  
+ W=.68u         
M_U3_U134_M11         X3 U3_NDLSB17 N09613 N09613 CMOSP  
+ L=.67u  
+ W=.68u         
M_U3_U134_M9         X3 U3_NDLSB22 N09613 N09613 CMOSP  
+ L=.67u  
+ W=.68u         
M_U3_U134_M1         X3 U3_NDLSB17 U3_U134_ND2 0 CMOSN  
+ L=.18u  
+ W=2.55u         
M_U3_U134_M6         U3_U134_ND3 U3_NDLSB19 U3_U134_ND4 0 CMOSN  
+ L=.18u  
+ W=2.55u         
M_U3_U134_M7         U3_U134_ND4 U3_NDLSB20 U3_U134_ND5 0 CMOSN  
+ L=.18u  
+ W=2.55u         
M_U3_U134_M12         X3 U3_NDLSB21 N09613 N09613 CMOSP  
+ L=.67u  
+ W=.68u         
M_U3_U134_M2         U3_U134_ND2 U3_NDLSB18 U3_U134_ND3 0 CMOSN  
+ L=.18u  
+ W=2.55u         
M_U3_U134_M13         U3_U134_ND6 U3_NDLSB22 U3_U134_ND7 0 CMOSN  
+ L=.18u  
+ W=2.55u         
M_U3_U134_M10         U3_U134_ND5 U3_NDLSB21 U3_U134_ND6 0 CMOSN  
+ L=.18u  
+ W=2.55u         
M_U3_U134_M3         X3 U3_NDLSB18 N09613 N09613 CMOSP  
+ L=.67u  
+ W=.68u         
M_U3_U134_M14         U3_U134_ND7 U3_NDLSB23 U3_U134_ND8 0 CMOSN  
+ L=.18u  
+ W=2.55u         
M_U3_U134_M8         X3 U3_NDLSB23 N09613 N09613 CMOSP  
+ L=.67u  
+ W=.68u         
M_U3_U134_M4         X3 U3_NDLSB19 N09613 N09613 CMOSP  
+ L=.67u  
+ W=.68u         
M_U3_U134_M15         U3_U134_ND8 U3_NDLSB24 0 0 CMOSN  
+ L=.18u  
+ W=2.55u         
M_U3_U3_M5         U3_N259565 RAMPA N09613 N09613 CMOSP  
+ L=.25u  
+ W=.93u         
M_U3_U3_M6         U3_N259565 RAMPA 0 0 CMOSN  
+ L=.43u  
+ W=.43u         
M_U3_U114_M5         U3_N573076 N09613 N09613 N09613 CMOSP  
+ L=.25u  
+ W=.93u         
M_U3_U114_M6         U3_N573076 N09613 0 0 CMOSN  
+ L=.43u  
+ W=.43u         
M_U3_U6_M5         5SB U3_ND5SB1 N09613 N09613 CMOSP  
+ L=.186u  
+ W=.25u         
M_U3_U6_M6         5SB U3_ND5SB1 U3_U6_ND2 0 CMOSN  
+ L=.2u  
+ W=.232u         
M_U3_U6_M2         U3_U6_ND2 U3_ND5SB2 0 0 CMOSN  
+ L=.2u  
+ W=.232u         
M_U3_U6_M4         5SB U3_ND5SB2 N09613 N09613 CMOSP  
+ L=.186u  
+ W=.25u         
M_U3_U102_M5         U3_N572074 N09613 N09613 N09613 CMOSP  
+ L=.25u  
+ W=.93u         
M_U3_U102_M6         U3_N572074 N09613 0 0 CMOSN  
+ L=.43u  
+ W=.43u         
M_U3_U36_M5         U3_N568545 RAMPA N09613 N09613 CMOSP  
+ L=.25u  
+ W=.93u         
M_U3_U36_M6         U3_N568545 RAMPA 0 0 CMOSN  
+ L=.43u  
+ W=.43u         
M_U3_U68_M5         U3_NDLSB1 RAMPA N09613 N09613 CMOSP  
+ L=.25u  
+ W=.93u         
M_U3_U68_M6         U3_NDLSB1 RAMPA 0 0 CMOSN  
+ L=.43u  
+ W=.43u         
M_U3_U85_M5         U3_NDLSB3 U3_N578622 N09613 N09613 CMOSP  
+ L=.186u  
+ W=.25u         
M_U3_U85_M6         U3_NDLSB3 U3_N578622 U3_U85_ND2 0 CMOSN  
+ L=.2u  
+ W=.232u         
M_U3_U85_M2         U3_U85_ND2 RAMPA 0 0 CMOSN  
+ L=.2u  
+ W=.232u         
M_U3_U85_M4         U3_NDLSB3 RAMPA N09613 N09613 CMOSP  
+ L=.186u  
+ W=.25u         
M_U3_U107_M5         U3_N572144 N09613 N09613 N09613 CMOSP  
+ L=.25u  
+ W=.93u         
M_U3_U107_M6         U3_N572144 N09613 0 0 CMOSN  
+ L=.43u  
+ W=.43u         
M_U3_U140_M7         LSB U3_NDX1LSB N09613 N09613 CMOSP  
+ L=.33u  
+ W=.25u         
M_U3_U140_M8         LSB U3_NDX2LSB N09613 N09613 CMOSP  
+ L=.33u  
+ W=.25u         
M_U3_U140_M12         LSB U3_NDX4LSB N09613 N09613 CMOSP  
+ L=.33u  
+ W=.25u         
M_U3_U140_M9         LSB U3_NDX3LSB N09613 N09613 CMOSP  
+ L=.33u  
+ W=.25u         
M_U3_U140_M1         LSB U3_NDX1LSB U3_U140_ND2 0 CMOSN  
+ L=.18u  
+ W=.47u         
M_U3_U140_M10         U3_U140_ND3 U3_NDX3LSB U3_U140_ND4 0 CMOSN  
+ L=.18u  
+ W=.47u         
M_U3_U140_M3         U3_U140_ND2 U3_NDX2LSB U3_U140_ND3 0 CMOSN  
+ L=.18u  
+ W=.47u         
M_U3_U140_M11         U3_U140_ND4 U3_NDX4LSB 0 0 CMOSN  
+ L=.18u  
+ W=.47u         
M_U3_U78_M5         U3_N578552 RAMPA N09613 N09613 CMOSP  
+ L=.25u  
+ W=.93u         
M_U3_U78_M6         U3_N578552 RAMPA 0 0 CMOSN  
+ L=.43u  
+ W=.43u         
M_U3_U60_M5         U3_ND2SB15 U3_N567851 N09613 N09613 CMOSP  
+ L=.186u  
+ W=.25u         
M_U3_U60_M6         U3_ND2SB15 U3_N567851 U3_U60_ND2 0 CMOSN  
+ L=.2u  
+ W=.232u         
M_U3_U60_M2         U3_U60_ND2 N09613 0 0 CMOSN  
+ L=.2u  
+ W=.232u         
M_U3_U60_M4         U3_ND2SB15 N09613 N09613 N09613 CMOSP  
+ L=.186u  
+ W=.25u         
M_U3_U120_M5         U3_NDLSB20 U3_N793529 N09613 N09613 CMOSP  
+ L=.186u  
+ W=.25u         
M_U3_U120_M6         U3_NDLSB20 U3_N793529 U3_U120_ND2 0 CMOSN  
+ L=.2u  
+ W=.232u         
M_U3_U120_M2         U3_U120_ND2 N09613 0 0 CMOSN  
+ L=.2u  
+ W=.232u         
M_U3_U120_M4         U3_NDLSB20 N09613 N09613 N09613 CMOSP  
+ L=.186u  
+ W=.25u         
M_U3_U19_M5         U3_N565120 N09613 N09613 N09613 CMOSP  
+ L=.25u  
+ W=.93u         
M_U3_U19_M6         U3_N565120 N09613 0 0 CMOSN  
+ L=.43u  
+ W=.43u         
M_U3_U41_M5         U3_N567841 N09613 N09613 N09613 CMOSP  
+ L=.25u  
+ W=.93u         
M_U3_U41_M6         U3_N567841 N09613 0 0 CMOSN  
+ L=.43u  
+ W=.43u         
M_U3_U118_M5         U3_NDLSB18 U3_N572074 N09613 N09613 CMOSP  
+ L=.186u  
+ W=.25u         
M_U3_U118_M6         U3_NDLSB18 U3_N572074 U3_U118_ND2 0 CMOSN  
+ L=.2u  
+ W=.232u         
M_U3_U118_M2         U3_U118_ND2 N09613 0 0 CMOSN  
+ L=.2u  
+ W=.232u         
M_U3_U118_M4         U3_NDLSB18 N09613 N09613 N09613 CMOSP  
+ L=.186u  
+ W=.25u         
M_U3_U132_M5         U3_NDLSB26 U3_N573036 N09613 N09613 CMOSP  
+ L=.186u  
+ W=.25u         
M_U3_U132_M6         U3_NDLSB26 U3_N573036 U3_U132_ND2 0 CMOSN  
+ L=.2u  
+ W=.232u         
M_U3_U132_M2         U3_U132_ND2 N09613 0 0 CMOSN  
+ L=.2u  
+ W=.232u         
M_U3_U132_M4         U3_NDLSB26 N09613 N09613 N09613 CMOSP  
+ L=.186u  
+ W=.25u         
M_U3_U34_M5         U3_N568523 RAMPA N09613 N09613 CMOSP  
+ L=.25u  
+ W=.93u         
M_U3_U34_M6         U3_N568523 RAMPA 0 0 CMOSN  
+ L=.43u  
+ W=.43u         
M_U3_U137_M5         U3_NDX2LSB X2 N09613 N09613 CMOSP  
+ L=.25u  
+ W=.93u         
M_U3_U137_M6         U3_NDX2LSB X2 0 0 CMOSN  
+ L=.43u  
+ W=.43u         
M_U3_U94_M5         U3_NDLSB13 U3_N578534 N09613 N09613 CMOSP  
+ L=.186u  
+ W=.25u         
M_U3_U94_M6         U3_NDLSB13 U3_N578534 U3_U94_ND2 0 CMOSN  
+ L=.2u  
+ W=.232u         
M_U3_U94_M2         U3_U94_ND2 RAMPA 0 0 CMOSN  
+ L=.2u  
+ W=.232u         
M_U3_U94_M4         U3_NDLSB13 RAMPA N09613 N09613 CMOSP  
+ L=.186u  
+ W=.25u         
M_U3_U51_M5         U3_ND2SB6 U3_N568545 N09613 N09613 CMOSP  
+ L=.186u  
+ W=.25u         
M_U3_U51_M6         U3_ND2SB6 U3_N568545 U3_U51_ND2 0 CMOSN  
+ L=.2u  
+ W=.232u         
M_U3_U51_M2         U3_U51_ND2 RAMPA 0 0 CMOSN  
+ L=.2u  
+ W=.232u         
M_U3_U51_M4         U3_ND2SB6 RAMPA N09613 N09613 CMOSP  
+ L=.186u  
+ W=.25u         
M_U3_U89_M5         U3_NDLSB7 U3_N578674 N09613 N09613 CMOSP  
+ L=.186u  
+ W=.25u         
M_U3_U89_M6         U3_NDLSB7 U3_N578674 U3_U89_ND2 0 CMOSN  
+ L=.2u  
+ W=.232u         
M_U3_U89_M2         U3_U89_ND2 RAMPA 0 0 CMOSN  
+ L=.2u  
+ W=.232u         
M_U3_U89_M4         U3_NDLSB7 RAMPA N09613 N09613 CMOSP  
+ L=.186u  
+ W=.25u         
M_U3_U47_M5         U3_ND2SB2 U3_N568499 N09613 N09613 CMOSP  
+ L=.186u  
+ W=.25u         
M_U3_U47_M6         U3_ND2SB2 U3_N568499 U3_U47_ND2 0 CMOSN  
+ L=.2u  
+ W=.232u         
M_U3_U47_M2         U3_U47_ND2 RAMPA 0 0 CMOSN  
+ L=.2u  
+ W=.232u         
M_U3_U47_M4         U3_ND2SB2 RAMPA N09613 N09613 CMOSP  
+ L=.186u  
+ W=.25u         
M_U3_U72_M5         U3_N578650 RAMPA N09613 N09613 CMOSP  
+ L=.25u  
+ W=.93u         
M_U3_U72_M6         U3_N578650 RAMPA 0 0 CMOSN  
+ L=.43u  
+ W=.43u         
M_U3_U17_M5         U3_N565104 RAMPA N09613 N09613 CMOSP  
+ L=.25u  
+ W=.93u         
M_U3_U17_M6         U3_N565104 RAMPA 0 0 CMOSN  
+ L=.43u  
+ W=.43u         
M_U3_U113_M5         U3_N573066 N09613 N09613 N09613 CMOSP  
+ L=.25u  
+ W=.93u         
M_U3_U113_M6         U3_N573066 N09613 0 0 CMOSN  
+ L=.43u  
+ W=.43u         
M_U3_U100_M16         X2 U3_NDLSB12 N09613 N09613 CMOSP  
+ L=.67u  
+ W=.68u         
M_U3_U100_M5         X2 U3_NDLSB16 N09613 N09613 CMOSP  
+ L=.67u  
+ W=.68u         
M_U3_U100_M11         X2 U3_NDLSB9 N09613 N09613 CMOSP  
+ L=.67u  
+ W=.68u         
M_U3_U100_M9         X2 U3_NDLSB14 N09613 N09613 CMOSP  
+ L=.67u  
+ W=.68u         
M_U3_U100_M1         X2 U3_NDLSB9 U3_U100_ND2 0 CMOSN  
+ L=.18u  
+ W=2.55u         
M_U3_U100_M6         U3_U100_ND3 U3_NDLSB11 U3_U100_ND4 0 CMOSN  
+ L=.18u  
+ W=2.55u         
M_U3_U100_M7         U3_U100_ND4 U3_NDLSB12 U3_U100_ND5 0 CMOSN  
+ L=.18u  
+ W=2.55u         
M_U3_U100_M12         X2 U3_NDLSB13 N09613 N09613 CMOSP  
+ L=.67u  
+ W=.68u         
M_U3_U100_M2         U3_U100_ND2 U3_NDLSB10 U3_U100_ND3 0 CMOSN  
+ L=.18u  
+ W=2.55u         
M_U3_U100_M13         U3_U100_ND6 U3_NDLSB14 U3_U100_ND7 0 CMOSN  
+ L=.18u  
+ W=2.55u         
M_U3_U100_M10         U3_U100_ND5 U3_NDLSB13 U3_U100_ND6 0 CMOSN  
+ L=.18u  
+ W=2.55u         
M_U3_U100_M3         X2 U3_NDLSB10 N09613 N09613 CMOSP  
+ L=.67u  
+ W=.68u         
M_U3_U100_M14         U3_U100_ND7 U3_NDLSB15 U3_U100_ND8 0 CMOSN  
+ L=.18u  
+ W=2.55u         
M_U3_U100_M8         X2 U3_NDLSB15 N09613 N09613 CMOSP  
+ L=.67u  
+ W=.68u         
M_U3_U100_M4         X2 U3_NDLSB11 N09613 N09613 CMOSP  
+ L=.67u  
+ W=.68u         
M_U3_U100_M15         U3_U100_ND8 U3_NDLSB16 0 0 CMOSN  
+ L=.18u  
+ W=2.55u         
M_U3_U55_M5         U3_ND2SB10 U3_N567801 N09613 N09613 CMOSP  
+ L=.186u  
+ W=.25u         
M_U3_U55_M6         U3_ND2SB10 U3_N567801 U3_U55_ND2 0 CMOSN  
+ L=.2u  
+ W=.232u         
M_U3_U55_M2         U3_U55_ND2 N09613 0 0 CMOSN  
+ L=.2u  
+ W=.232u         
M_U3_U55_M4         U3_ND2SB10 N09613 N09613 N09613 CMOSP  
+ L=.186u  
+ W=.25u         
M_U3_U29_M5         U3_ND3SB7 U3_N565130 N09613 N09613 CMOSP  
+ L=.186u  
+ W=.25u         
M_U3_U29_M6         U3_ND3SB7 U3_N565130 U3_U29_ND2 0 CMOSN  
+ L=.2u  
+ W=.232u         
M_U3_U29_M2         U3_U29_ND2 N09613 0 0 CMOSN  
+ L=.2u  
+ W=.232u         
M_U3_U29_M4         U3_ND3SB7 N09613 N09613 N09613 CMOSP  
+ L=.186u  
+ W=.25u         
M_U3_U127_M5         U3_NDLSB30 U3_N573076 N09613 N09613 CMOSP  
+ L=.186u  
+ W=.25u         
M_U3_U127_M6         U3_NDLSB30 U3_N573076 U3_U127_ND2 0 CMOSN  
+ L=.2u  
+ W=.232u         
M_U3_U127_M2         U3_U127_ND2 N09613 0 0 CMOSN  
+ L=.2u  
+ W=.232u         
M_U3_U127_M4         U3_NDLSB30 N09613 N09613 N09613 CMOSP  
+ L=.186u  
+ W=.25u         
M_U3_U122_M5         U3_NDLSB22 U3_N572134 N09613 N09613 CMOSP  
+ L=.186u  
+ W=.25u         
M_U3_U122_M6         U3_NDLSB22 U3_N572134 U3_U122_ND2 0 CMOSN  
+ L=.2u  
+ W=.232u         
M_U3_U122_M2         U3_U122_ND2 N09613 0 0 CMOSN  
+ L=.2u  
+ W=.232u         
M_U3_U122_M4         U3_NDLSB22 N09613 N09613 N09613 CMOSP  
+ L=.186u  
+ W=.25u         
M_U3_U106_M5         U3_N572134 N09613 N09613 N09613 CMOSP  
+ L=.25u  
+ W=.93u         
M_U3_U106_M6         U3_N572134 N09613 0 0 CMOSN  
+ L=.43u  
+ W=.43u         
M_U3_U77_M5         U3_N578562 RAMPA N09613 N09613 CMOSP  
+ L=.25u  
+ W=.93u         
M_U3_U77_M6         U3_N578562 RAMPA 0 0 CMOSN  
+ L=.43u  
+ W=.43u         
M_U3_U15_M5         U3_N565082 RAMPA N09613 N09613 CMOSP  
+ L=.25u  
+ W=.93u         
M_U3_U15_M6         U3_N565082 RAMPA 0 0 CMOSN  
+ L=.43u  
+ W=.43u         
M_U3_U10_M5         U3_ND4SB4 U3_N259605 N09613 N09613 CMOSP  
+ L=.186u  
+ W=.25u         
M_U3_U10_M6         U3_ND4SB4 U3_N259605 U3_U10_ND2 0 CMOSN  
+ L=.2u  
+ W=.232u         
M_U3_U10_M2         U3_U10_ND2 N09613 0 0 CMOSN  
+ L=.2u  
+ W=.232u         
M_U3_U10_M4         U3_ND4SB4 N09613 N09613 N09613 CMOSP  
+ L=.186u  
+ W=.25u         
M_U3_U40_M5         U3_N567851 N09613 N09613 N09613 CMOSP  
+ L=.25u  
+ W=.93u         
M_U3_U40_M6         U3_N567851 N09613 0 0 CMOSN  
+ L=.43u  
+ W=.43u         
M_U3_U131_M5         U3_NDLSB27 U3_N573046 N09613 N09613 CMOSP  
+ L=.186u  
+ W=.25u         
M_U3_U131_M6         U3_NDLSB27 U3_N573046 U3_U131_ND2 0 CMOSN  
+ L=.2u  
+ W=.232u         
M_U3_U131_M2         U3_U131_ND2 N09613 0 0 CMOSN  
+ L=.2u  
+ W=.232u         
M_U3_U131_M4         U3_NDLSB27 N09613 N09613 N09613 CMOSP  
+ L=.186u  
+ W=.25u         
M_U3_U101_M5         U3_N572064 N09613 N09613 N09613 CMOSP  
+ L=.25u  
+ W=.93u         
M_U3_U101_M6         U3_N572064 N09613 0 0 CMOSN  
+ L=.43u  
+ W=.43u         
M_U3_U27_M5         U3_ND3SB5 U3_N564920 N09613 N09613 CMOSP  
+ L=.186u  
+ W=.25u         
M_U3_U27_M6         U3_ND3SB5 U3_N564920 U3_U27_ND2 0 CMOSN  
+ L=.2u  
+ W=.232u         
M_U3_U27_M2         U3_U27_ND2 N09613 0 0 CMOSN  
+ L=.2u  
+ W=.232u         
M_U3_U27_M4         U3_ND3SB5 N09613 N09613 N09613 CMOSP  
+ L=.186u  
+ W=.25u         
M_U3_U84_M5         U3_NDLSB2 U3_N578608 N09613 N09613 CMOSP  
+ L=.186u  
+ W=.25u         
M_U3_U84_M6         U3_NDLSB2 U3_N578608 U3_U84_ND2 0 CMOSN  
+ L=.2u  
+ W=.232u         
M_U3_U84_M2         U3_U84_ND2 RAMPA 0 0 CMOSN  
+ L=.2u  
+ W=.232u         
M_U3_U84_M4         U3_NDLSB2 RAMPA N09613 N09613 CMOSP  
+ L=.186u  
+ W=.25u         
M_U3_U59_M5         U3_ND2SB14 U3_N567841 N09613 N09613 CMOSP  
+ L=.186u  
+ W=.25u         
M_U3_U59_M6         U3_ND2SB14 U3_N567841 U3_U59_ND2 0 CMOSN  
+ L=.2u  
+ W=.232u         
M_U3_U59_M2         U3_U59_ND2 N09613 0 0 CMOSN  
+ L=.2u  
+ W=.232u         
M_U3_U59_M4         U3_ND2SB14 N09613 N09613 N09613 CMOSP  
+ L=.186u  
+ W=.25u         
M_U3_U13_M16         U3_N565498 U3_ND3SB4 N09613 N09613 CMOSP  
+ L=.67u  
+ W=.68u         
M_U3_U13_M5         U3_N565498 U3_ND3SB8 N09613 N09613 CMOSP  
+ L=.67u  
+ W=.68u         
M_U3_U13_M11         U3_N565498 U3_ND3SB1 N09613 N09613 CMOSP  
+ L=.67u  
+ W=.68u         
M_U3_U13_M9         U3_N565498 U3_ND3SB6 N09613 N09613 CMOSP  
+ L=.67u  
+ W=.68u         
M_U3_U13_M1         U3_N565498 U3_ND3SB1 U3_U13_ND2 0 CMOSN  
+ L=.18u  
+ W=2.55u         
M_U3_U13_M6         U3_U13_ND3 U3_ND3SB3 U3_U13_ND4 0 CMOSN  
+ L=.18u  
+ W=2.55u         
M_U3_U13_M7         U3_U13_ND4 U3_ND3SB4 U3_U13_ND5 0 CMOSN  
+ L=.18u  
+ W=2.55u         
M_U3_U13_M12         U3_N565498 U3_ND3SB5 N09613 N09613 CMOSP  
+ L=.67u  
+ W=.68u         
M_U3_U13_M2         U3_U13_ND2 U3_ND3SB2 U3_U13_ND3 0 CMOSN  
+ L=.18u  
+ W=2.55u         
M_U3_U13_M13         U3_U13_ND6 U3_ND3SB6 U3_U13_ND7 0 CMOSN  
+ L=.18u  
+ W=2.55u         
M_U3_U13_M10         U3_U13_ND5 U3_ND3SB5 U3_U13_ND6 0 CMOSN  
+ L=.18u  
+ W=2.55u         
M_U3_U13_M3         U3_N565498 U3_ND3SB2 N09613 N09613 CMOSP  
+ L=.67u  
+ W=.68u         
M_U3_U13_M14         U3_U13_ND7 U3_ND3SB7 U3_U13_ND8 0 CMOSN  
+ L=.18u  
+ W=2.55u         
M_U3_U13_M8         U3_N565498 U3_ND3SB7 N09613 N09613 CMOSP  
+ L=.67u  
+ W=.68u         
M_U3_U13_M4         U3_N565498 U3_ND3SB3 N09613 N09613 CMOSP  
+ L=.67u  
+ W=.68u         
M_U3_U13_M15         U3_U13_ND8 U3_ND3SB8 0 0 CMOSN  
+ L=.18u  
+ W=2.55u         
M_U3_U112_M5         U3_N573056 N09613 N09613 N09613 CMOSP  
+ L=.25u  
+ W=.93u         
M_U3_U112_M6         U3_N573056 N09613 0 0 CMOSN  
+ L=.43u  
+ W=.43u         
M_U3_U93_M5         U3_NDLSB14 U3_N578552 N09613 N09613 CMOSP  
+ L=.186u  
+ W=.25u         
M_U3_U93_M6         U3_NDLSB14 U3_N578552 U3_U93_ND2 0 CMOSN  
+ L=.2u  
+ W=.232u         
M_U3_U93_M2         U3_U93_ND2 RAMPA 0 0 CMOSN  
+ L=.2u  
+ W=.232u         
M_U3_U93_M4         U3_NDLSB14 RAMPA N09613 N09613 CMOSP  
+ L=.186u  
+ W=.25u         
M_U3_U99_M16         X1 U3_NDLSB4 N09613 N09613 CMOSP  
+ L=.67u  
+ W=.68u         
M_U3_U99_M5         X1 U3_NDLSB8 N09613 N09613 CMOSP  
+ L=.67u  
+ W=.68u         
M_U3_U99_M11         X1 U3_NDLSB1 N09613 N09613 CMOSP  
+ L=.67u  
+ W=.68u         
M_U3_U99_M9         X1 U3_NDLSB6 N09613 N09613 CMOSP  
+ L=.67u  
+ W=.68u         
M_U3_U99_M1         X1 U3_NDLSB1 U3_U99_ND2 0 CMOSN  
+ L=.18u  
+ W=2.55u         
M_U3_U99_M6         U3_U99_ND3 U3_NDLSB3 U3_U99_ND4 0 CMOSN  
+ L=.18u  
+ W=2.55u         
M_U3_U99_M7         U3_U99_ND4 U3_NDLSB4 U3_U99_ND5 0 CMOSN  
+ L=.18u  
+ W=2.55u         
M_U3_U99_M12         X1 U3_NDLSB5 N09613 N09613 CMOSP  
+ L=.67u  
+ W=.68u         
M_U3_U99_M2         U3_U99_ND2 U3_NDLSB2 U3_U99_ND3 0 CMOSN  
+ L=.18u  
+ W=2.55u         
M_U3_U99_M13         U3_U99_ND6 U3_NDLSB6 U3_U99_ND7 0 CMOSN  
+ L=.18u  
+ W=2.55u         
M_U3_U99_M10         U3_U99_ND5 U3_NDLSB5 U3_U99_ND6 0 CMOSN  
+ L=.18u  
+ W=2.55u         
M_U3_U99_M3         X1 U3_NDLSB2 N09613 N09613 CMOSP  
+ L=.67u  
+ W=.68u         
M_U3_U99_M14         U3_U99_ND7 U3_NDLSB7 U3_U99_ND8 0 CMOSN  
+ L=.18u  
+ W=2.55u         
M_U3_U99_M8         X1 U3_NDLSB7 N09613 N09613 CMOSP  
+ L=.67u  
+ W=.68u         
M_U3_U99_M4         X1 U3_NDLSB3 N09613 N09613 CMOSP  
+ L=.67u  
+ W=.68u         
M_U3_U99_M15         U3_U99_ND8 U3_NDLSB8 0 0 CMOSN  
+ L=.18u  
+ W=2.55u         
M_U3_U117_M5         U3_NDLSB17 U3_N572064 N09613 N09613 CMOSP  
+ L=.186u  
+ W=.25u         
M_U3_U117_M6         U3_NDLSB17 U3_N572064 U3_U117_ND2 0 CMOSN  
+ L=.2u  
+ W=.232u         
M_U3_U117_M2         U3_U117_ND2 N09613 0 0 CMOSN  
+ L=.2u  
+ W=.232u         
M_U3_U117_M4         U3_NDLSB17 N09613 N09613 N09613 CMOSP  
+ L=.186u  
+ W=.25u         
M_U3_U33_M5         U3_N568511 RAMPA N09613 N09613 CMOSP  
+ L=.25u  
+ W=.93u         
M_U3_U33_M6         U3_N568511 RAMPA 0 0 CMOSN  
+ L=.43u  
+ W=.43u         
M_U3_U98_M5         U3_NDLSB9 U3_N578480 N09613 N09613 CMOSP  
+ L=.186u  
+ W=.25u         
M_U3_U98_M6         U3_NDLSB9 U3_N578480 U3_U98_ND2 0 CMOSN  
+ L=.2u  
+ W=.232u         
M_U3_U98_M2         U3_U98_ND2 RAMPA 0 0 CMOSN  
+ L=.2u  
+ W=.232u         
M_U3_U98_M4         U3_NDLSB9 RAMPA N09613 N09613 CMOSP  
+ L=.186u  
+ W=.25u         
M_U3_U4_M5         U3_N259543 N09613 N09613 N09613 CMOSP  
+ L=.25u  
+ W=.93u         
M_U3_U4_M6         U3_N259543 N09613 0 0 CMOSN  
+ L=.43u  
+ W=.43u         
M_U3_U46_M5         U3_N569141 N09613 N09613 N09613 CMOSP  
+ L=.25u  
+ W=.93u         
M_U3_U46_M6         U3_N569141 N09613 0 0 CMOSN  
+ L=.43u  
+ W=.43u         
M_U3_U7_M5         U3_ND5SB2 U3_N259339 N09613 N09613 CMOSP  
+ L=.186u  
+ W=.25u         
M_U3_U7_M6         U3_ND5SB2 U3_N259339 U3_U7_ND2 0 CMOSN  
+ L=.2u  
+ W=.232u         
M_U3_U7_M2         U3_U7_ND2 N09613 0 0 CMOSN  
+ L=.2u  
+ W=.232u         
M_U3_U7_M4         U3_ND5SB2 N09613 N09613 N09613 CMOSP  
+ L=.186u  
+ W=.25u         
M_U3_U88_M5         U3_NDLSB6 U3_N578662 N09613 N09613 CMOSP  
+ L=.186u  
+ W=.25u         
M_U3_U88_M6         U3_NDLSB6 U3_N578662 U3_U88_ND2 0 CMOSN  
+ L=.2u  
+ W=.232u         
M_U3_U88_M2         U3_U88_ND2 RAMPA 0 0 CMOSN  
+ L=.2u  
+ W=.232u         
M_U3_U88_M4         U3_NDLSB6 RAMPA N09613 N09613 CMOSP  
+ L=.186u  
+ W=.25u         
M_U3_U71_M5         U3_N578636 RAMPA N09613 N09613 CMOSP  
+ L=.25u  
+ W=.93u         
M_U3_U71_M6         U3_N578636 RAMPA 0 0 CMOSN  
+ L=.43u  
+ W=.43u         
M_U3_U25_M5         U3_ND3SB3 U3_N565094 N09613 N09613 CMOSP  
+ L=.186u  
+ W=.25u         
M_U3_U25_M6         U3_ND3SB3 U3_N565094 U3_U25_ND2 0 CMOSN  
+ L=.2u  
+ W=.232u         
M_U3_U25_M2         U3_U25_ND2 RAMPA 0 0 CMOSN  
+ L=.2u  
+ W=.232u         
M_U3_U25_M4         U3_ND3SB3 RAMPA N09613 N09613 CMOSP  
+ L=.186u  
+ W=.25u         
M_U3_U50_M5         U3_ND2SB5 U3_N568535 N09613 N09613 CMOSP  
+ L=.186u  
+ W=.25u         
M_U3_U50_M6         U3_ND2SB5 U3_N568535 U3_U50_ND2 0 CMOSN  
+ L=.2u  
+ W=.232u         
M_U3_U50_M2         U3_U50_ND2 RAMPA 0 0 CMOSN  
+ L=.2u  
+ W=.232u         
M_U3_U50_M4         U3_ND2SB5 RAMPA N09613 N09613 CMOSP  
+ L=.186u  
+ W=.25u         
M_U3_U76_M5         U3_N578578 RAMPA N09613 N09613 CMOSP  
+ L=.25u  
+ W=.93u         
M_U3_U76_M6         U3_N578578 RAMPA 0 0 CMOSN  
+ L=.43u  
+ W=.43u         
M_U3_U126_M5         U3_NDLSB31 U3_N573086 N09613 N09613 CMOSP  
+ L=.186u  
+ W=.25u         
M_U3_U126_M6         U3_NDLSB31 U3_N573086 U3_U126_ND2 0 CMOSN  
+ L=.2u  
+ W=.232u         
M_U3_U126_M2         U3_U126_ND2 N09613 0 0 CMOSN  
+ L=.2u  
+ W=.232u         
M_U3_U126_M4         U3_NDLSB31 N09613 N09613 N09613 CMOSP  
+ L=.186u  
+ W=.25u         
M_U3_U1_M5         U3_ND5SB1 RAMPA N09613 N09613 CMOSP  
+ L=.25u  
+ W=.93u         
M_U3_U1_M6         U3_ND5SB1 RAMPA 0 0 CMOSN  
+ L=.43u  
+ W=.43u         
M_U3_U105_M5         U3_N572124 N09613 N09613 N09613 CMOSP  
+ L=.25u  
+ W=.93u         
M_U3_U105_M6         U3_N572124 N09613 0 0 CMOSN  
+ L=.43u  
+ W=.43u         
M_U3_U83_M5         U3_N578480 RAMPA N09613 N09613 CMOSP  
+ L=.25u  
+ W=.93u         
M_U3_U83_M6         U3_N578480 RAMPA 0 0 CMOSN  
+ L=.43u  
+ W=.43u         
M_U3_U54_M5         U3_ND2SB9 U3_N569141 N09613 N09613 CMOSP  
+ L=.186u  
+ W=.25u         
M_U3_U54_M6         U3_ND2SB9 U3_N569141 U3_U54_ND2 0 CMOSN  
+ L=.2u  
+ W=.232u         
M_U3_U54_M2         U3_U54_ND2 N09613 0 0 CMOSN  
+ L=.2u  
+ W=.232u         
M_U3_U54_M4         U3_ND2SB9 N09613 N09613 N09613 CMOSP  
+ L=.186u  
+ W=.25u         
M_U3_U12_M7         4SB U3_ND4SB1 N09613 N09613 CMOSP  
+ L=.33u  
+ W=.25u         
M_U3_U12_M8         4SB U3_ND4SB2 N09613 N09613 CMOSP  
+ L=.33u  
+ W=.25u         
M_U3_U12_M12         4SB U3_ND4SB4 N09613 N09613 CMOSP  
+ L=.33u  
+ W=.25u         
M_U3_U12_M9         4SB U3_ND4SB3 N09613 N09613 CMOSP  
+ L=.33u  
+ W=.25u         
M_U3_U12_M1         4SB U3_ND4SB1 U3_U12_ND2 0 CMOSN  
+ L=.18u  
+ W=.47u         
M_U3_U12_M10         U3_U12_ND3 U3_ND4SB3 U3_U12_ND4 0 CMOSN  
+ L=.18u  
+ W=.47u         
M_U3_U12_M3         U3_U12_ND2 U3_ND4SB2 U3_U12_ND3 0 CMOSN  
+ L=.18u  
+ W=.47u         
M_U3_U12_M11         U3_U12_ND4 U3_ND4SB4 0 0 CMOSN  
+ L=.18u  
+ W=.47u         
M_U3_U138_M5         U3_NDX3LSB X3 N09613 N09613 CMOSP  
+ L=.25u  
+ W=.93u         
M_U3_U138_M6         U3_NDX3LSB X3 0 0 CMOSN  
+ L=.43u  
+ W=.43u         
M_U3_U121_M5         U3_NDLSB21 U3_N572124 N09613 N09613 CMOSP  
+ L=.186u  
+ W=.25u         
M_U3_U121_M6         U3_NDLSB21 U3_N572124 U3_U121_ND2 0 CMOSN  
+ L=.2u  
+ W=.232u         
M_U3_U121_M2         U3_U121_ND2 N09613 0 0 CMOSN  
+ L=.2u  
+ W=.232u         
M_U3_U121_M4         U3_NDLSB21 N09613 N09613 N09613 CMOSP  
+ L=.186u  
+ W=.25u         
M_U3_U111_M5         U3_N573046 N09613 N09613 N09613 CMOSP  
+ L=.25u  
+ W=.93u         
M_U3_U111_M6         U3_N573046 N09613 0 0 CMOSN  
+ L=.43u  
+ W=.43u         
M_U3_U130_M5         U3_NDLSB28 U3_N573056 N09613 N09613 CMOSP  
+ L=.186u  
+ W=.25u         
M_U3_U130_M6         U3_NDLSB28 U3_N573056 U3_U130_ND2 0 CMOSN  
+ L=.2u  
+ W=.232u         
M_U3_U130_M2         U3_U130_ND2 N09613 0 0 CMOSN  
+ L=.2u  
+ W=.232u         
M_U3_U130_M4         U3_NDLSB28 N09613 N09613 N09613 CMOSP  
+ L=.186u  
+ W=.25u         
M_U3_U39_M5         U3_N567861 N09613 N09613 N09613 CMOSP  
+ L=.25u  
+ W=.93u         
M_U3_U39_M6         U3_N567861 N09613 0 0 CMOSN  
+ L=.43u  
+ W=.43u         
M_U3_U30_M5         U3_ND3SB8 U3_N564924 N09613 N09613 CMOSP  
+ L=.186u  
+ W=.25u         
M_U3_U30_M6         U3_ND3SB8 U3_N564924 U3_U30_ND2 0 CMOSN  
+ L=.2u  
+ W=.232u         
M_U3_U30_M2         U3_U30_ND2 N09613 0 0 CMOSN  
+ L=.2u  
+ W=.232u         
M_U3_U30_M4         U3_ND3SB8 N09613 N09613 N09613 CMOSP  
+ L=.186u  
+ W=.25u         
M_U3_U45_M5         U3_N567801 N09613 N09613 N09613 CMOSP  
+ L=.25u  
+ W=.93u         
M_U3_U45_M6         U3_N567801 N09613 0 0 CMOSN  
+ L=.43u  
+ W=.43u         
M_U3_U22_M5         U3_N565340 U3_N565498 N09613 N09613 CMOSP  
+ L=.25u  
+ W=.93u         
M_U3_U22_M6         U3_N565340 U3_N565498 0 0 CMOSN  
+ L=.43u  
+ W=.43u         
M_U3_U92_M5         U3_NDLSB15 U3_N578562 N09613 N09613 CMOSP  
+ L=.186u  
+ W=.25u         
M_U3_U92_M6         U3_NDLSB15 U3_N578562 U3_U92_ND2 0 CMOSN  
+ L=.2u  
+ W=.232u         
M_U3_U92_M2         U3_U92_ND2 RAMPA 0 0 CMOSN  
+ L=.2u  
+ W=.232u         
M_U3_U92_M4         U3_NDLSB15 RAMPA N09613 N09613 CMOSP  
+ L=.186u  
+ W=.25u         
M_U3_U58_M5         U3_ND2SB13 U3_N567831 N09613 N09613 CMOSP  
+ L=.186u  
+ W=.25u         
M_U3_U58_M6         U3_ND2SB13 U3_N567831 U3_U58_ND2 0 CMOSN  
+ L=.2u  
+ W=.232u         
M_U3_U58_M2         U3_U58_ND2 N09613 0 0 CMOSN  
+ L=.2u  
+ W=.232u         
M_U3_U58_M4         U3_ND2SB13 N09613 N09613 N09613 CMOSP  
+ L=.186u  
+ W=.25u         
M_U3_U97_M5         U3_NDLSB10 U3_N578504 N09613 N09613 CMOSP  
+ L=.186u  
+ W=.25u         
M_U3_U97_M6         U3_NDLSB10 U3_N578504 U3_U97_ND2 0 CMOSN  
+ L=.2u  
+ W=.232u         
M_U3_U97_M2         U3_U97_ND2 RAMPA 0 0 CMOSN  
+ L=.2u  
+ W=.232u         
M_U3_U97_M4         U3_NDLSB10 RAMPA N09613 N09613 CMOSP  
+ L=.186u  
+ W=.25u         
M_U3_U82_M5         U3_N578504 RAMPA N09613 N09613 CMOSP  
+ L=.25u  
+ W=.93u         
M_U3_U82_M6         U3_N578504 RAMPA 0 0 CMOSN  
+ L=.43u  
+ W=.43u         
M_U3_U20_M5         U3_N565130 N09613 N09613 N09613 CMOSP  
+ L=.25u  
+ W=.93u         
M_U3_U20_M6         U3_N565130 N09613 0 0 CMOSN  
+ L=.43u  
+ W=.43u         
M_U3_U32_M5         U3_N568499 RAMPA N09613 N09613 CMOSP  
+ L=.25u  
+ W=.93u         
M_U3_U32_M6         U3_N568499 RAMPA 0 0 CMOSN  
+ L=.43u  
+ W=.43u         
M_U3_U75_M5         U3_N578686 RAMPA N09613 N09613 CMOSP  
+ L=.25u  
+ W=.93u         
M_U3_U75_M6         U3_N578686 RAMPA 0 0 CMOSN  
+ L=.43u  
+ W=.43u         
M_U3_U70_M5         U3_N578622 RAMPA N09613 N09613 CMOSP  
+ L=.25u  
+ W=.93u         
M_U3_U70_M6         U3_N578622 RAMPA 0 0 CMOSN  
+ L=.43u  
+ W=.43u         
M_U3_U87_M5         U3_NDLSB5 U3_N578650 N09613 N09613 CMOSP  
+ L=.186u  
+ W=.25u         
M_U3_U87_M6         U3_NDLSB5 U3_N578650 U3_U87_ND2 0 CMOSN  
+ L=.2u  
+ W=.232u         
M_U3_U87_M2         U3_U87_ND2 RAMPA 0 0 CMOSN  
+ L=.2u  
+ W=.232u         
M_U3_U87_M4         U3_NDLSB5 RAMPA N09613 N09613 CMOSP  
+ L=.186u  
+ W=.25u         
M_U3_U110_M5         U3_N573036 N09613 N09613 N09613 CMOSP  
+ L=.25u  
+ W=.93u         
M_U3_U110_M6         U3_N573036 N09613 0 0 CMOSN  
+ L=.43u  
+ W=.43u         
M_U3_U125_M5         U3_NDLSB32 U3_N573096 N09613 N09613 CMOSP  
+ L=.186u  
+ W=.25u         
M_U3_U125_M6         U3_NDLSB32 U3_N573096 U3_U125_ND2 0 CMOSN  
+ L=.2u  
+ W=.232u         
M_U3_U125_M2         U3_U125_ND2 N09613 0 0 CMOSN  
+ L=.2u  
+ W=.232u         
M_U3_U125_M4         U3_NDLSB32 N09613 N09613 N09613 CMOSP  
+ L=.186u  
+ W=.25u         
M_U3_U67_M5         U3_N567401 U3_N567419 N09613 N09613 CMOSP  
+ L=.25u  
+ W=.93u         
M_U3_U67_M6         U3_N567401 U3_N567419 0 0 CMOSN  
+ L=.43u  
+ W=.43u         
M_U3_U11_M5         U3_ND4SB1 RAMPA N09613 N09613 CMOSP  
+ L=.25u  
+ W=.93u         
M_U3_U11_M6         U3_ND4SB1 RAMPA 0 0 CMOSN  
+ L=.43u  
+ W=.43u         
M_U3_U49_M5         U3_ND2SB4 U3_N568523 N09613 N09613 CMOSP  
+ L=.186u  
+ W=.25u         
M_U3_U49_M6         U3_ND2SB4 U3_N568523 U3_U49_ND2 0 CMOSN  
+ L=.2u  
+ W=.232u         
M_U3_U49_M2         U3_U49_ND2 RAMPA 0 0 CMOSN  
+ L=.2u  
+ W=.232u         
M_U3_U49_M4         U3_ND2SB4 RAMPA N09613 N09613 CMOSP  
+ L=.186u  
+ W=.25u         
M_U3_U104_M5         U3_N793529 N09613 N09613 N09613 CMOSP  
+ L=.25u  
+ W=.93u         
M_U3_U104_M6         U3_N793529 N09613 0 0 CMOSN  
+ L=.43u  
+ W=.43u         
M_U3_U18_M5         U3_N564920 N09613 N09613 N09613 CMOSP  
+ L=.25u  
+ W=.93u         
M_U3_U18_M6         U3_N564920 N09613 0 0 CMOSN  
+ L=.43u  
+ W=.43u         
M_U3_U129_M5         U3_NDLSB29 U3_N573066 N09613 N09613 CMOSP  
+ L=.186u  
+ W=.25u         
M_U3_U129_M6         U3_NDLSB29 U3_N573066 U3_U129_ND2 0 CMOSN  
+ L=.2u  
+ W=.232u         
M_U3_U129_M2         U3_U129_ND2 N09613 0 0 CMOSN  
+ L=.2u  
+ W=.232u         
M_U3_U129_M4         U3_NDLSB29 N09613 N09613 N09613 CMOSP  
+ L=.186u  
+ W=.25u         
M_U3_U44_M5         U3_N567811 N09613 N09613 N09613 CMOSP  
+ L=.25u  
+ W=.93u         
M_U3_U44_M6         U3_N567811 N09613 0 0 CMOSN  
+ L=.43u  
+ W=.43u         
M_U3_U38_M5         U3_N568565 RAMPA N09613 N09613 CMOSP  
+ L=.25u  
+ W=.93u         
M_U3_U38_M6         U3_N568565 RAMPA 0 0 CMOSN  
+ L=.43u  
+ W=.43u         
M_U3_U53_M5         U3_ND2SB8 U3_N568565 N09613 N09613 CMOSP  
+ L=.186u  
+ W=.25u         
M_U3_U53_M6         U3_ND2SB8 U3_N568565 U3_U53_ND2 0 CMOSN  
+ L=.2u  
+ W=.232u         
M_U3_U53_M2         U3_U53_ND2 RAMPA 0 0 CMOSN  
+ L=.2u  
+ W=.232u         
M_U3_U53_M4         U3_ND2SB8 RAMPA N09613 N09613 CMOSP  
+ L=.186u  
+ W=.25u         
M_U3_U8_M5         U3_ND4SB2 U3_N259565 N09613 N09613 CMOSP  
+ L=.186u  
+ W=.25u         
M_U3_U8_M6         U3_ND4SB2 U3_N259565 U3_U8_ND2 0 CMOSN  
+ L=.2u  
+ W=.232u         
M_U3_U8_M2         U3_U8_ND2 RAMPA 0 0 CMOSN  
+ L=.2u  
+ W=.232u         
M_U3_U8_M4         U3_ND4SB2 RAMPA N09613 N09613 CMOSP  
+ L=.186u  
+ W=.25u         
M_U3_U62_M5         2SB U3_N568485 N09613 N09613 CMOSP  
+ L=.186u  
+ W=.25u         
M_U3_U62_M6         2SB U3_N568485 U3_U62_ND2 0 CMOSN  
+ L=.2u  
+ W=.232u         
M_U3_U62_M2         U3_U62_ND2 U3_N567401 0 0 CMOSN  
+ L=.2u  
+ W=.232u         
M_U3_U62_M4         2SB U3_N567401 N09613 N09613 CMOSP  
+ L=.186u  
+ W=.25u         
M_U3_U5_M5         U3_N259605 N09613 N09613 N09613 CMOSP  
+ L=.25u  
+ W=.93u         
M_U3_U5_M6         U3_N259605 N09613 0 0 CMOSN  
+ L=.43u  
+ W=.43u         
M_U3_U81_M5         U3_N578514 RAMPA N09613 N09613 CMOSP  
+ L=.25u  
+ W=.93u         
M_U3_U81_M6         U3_N578514 RAMPA 0 0 CMOSN  
+ L=.43u  
+ W=.43u         
R_R6         N09613 LSB  100k  
R_R7         N2237814 0  1k  
R_R1         N09613 MSB  100k  
V_VDD         N09613 0 3.3
R_R11         N2237810 0  1k  
R_R2         N09613 5SB  100k  
R_R15         N223786 0  1k  
R_R17         N223784 0  1k  
R_R21         N223780 0  1k  
R_R13         N223788 0  1k  
R_R9         N2237812 0  1k  
R_R3         N09613 4SB  100k  
V_SENALES_V13         N2237812 0  
+PULSE 3 0 12.9u .1u 0 2u 15u
V_SENALES_V8         N223787 0  
+PULSE 3 0 7.9u .1u 0 7u 15u
V_SENALES_V6         N223785 0  
+PULSE 3 0 5.9u .1u 0 9u 15u
V_SENALES_V3         N30773 0  
+PULSE 3 0 2.9u .1u 0 12u 15u
V_SENALES_V14         N2237813 0  
+PULSE 3 0 13.9u .1u 0 1u 15u
V_SENALES_V11         N2237810 0  
+PULSE 3 0 10.9u .1u 0 4u 15u
V_SENALES_V4         N223783 0  
+PULSE 3 0 3.9u .1u 0 11u 15u
V_SENALES_V7         N223786 0  
+PULSE 3 0 6.9u .1u 0 8u 15u
V_SENALES_V12         N2237811 0  
+PULSE 3 0 11.9u .1u 0 3u 15u
V_SENALES_V9         N223788 0  
+PULSE 3 0 8.9u .1u 0 6u 15u
V_SENALES_V1         N223780 0  
+PULSE 3 0 0.9u .1u 0 14u 15u
V_SENALES_V5         N223784 0  
+PULSE 3 0 4.9u .1u 0 10u 15u
V_SENALES_V15         N2237814 0  
+PULSE 3 0 14.9u .1u 0u 0u 15u
V_SENALES_V2         N223781 0  
+PULSE 3 0 1.9u .1u 0 13u 15u
V_SENALES_V10         N223789 0  
+PULSE 3 0 9.9u .1u 0 5u 15u
R_R4         N09613 3SB  100k  

**** RESUMING transient.cir ****
.END

Mosfet M_U3_U31_M5, model CMOSP: Using BSIM VERSION 3.1 or lower
WARNING -- Mosfet M_U3_U31_M5, model CMOSP: Pd = 0 is less than W
WARNING -- Mosfet M_U3_U31_M5, model CMOSP: Ps = 0 is less than W
Mosfet M_U3_U91_M5, model CMOSP: Using BSIM VERSION 3.1 or lower
WARNING -- Mosfet M_U3_U91_M5, model CMOSP: Pd = 0 is less than W
WARNING -- Mosfet M_U3_U91_M5, model CMOSP: Ps = 0 is less than W
Mosfet M_U3_U64_M16, model CMOSP: Using BSIM VERSION 3.1 or lower
WARNING -- Mosfet M_U3_U64_M16, model CMOSP: Pd = 0 is less than W
WARNING -- Mosfet M_U3_U64_M16, model CMOSP: Ps = 0 is less than W
Mosfet M_U3_U140_M7, model CMOSP: Using BSIM VERSION 3.1 or lower
WARNING -- Mosfet M_U3_U140_M7, model CMOSP: Pd = 0 is less than W
WARNING -- Mosfet M_U3_U140_M7, model CMOSP: Ps = 0 is less than W
Mosfet M_U3_U31_M6, model CMOSN: Using BSIM VERSION 3.1 or lower
WARNING -- Mosfet M_U3_U31_M6, model CMOSN: Pd = 0 is less than W
WARNING -- Mosfet M_U3_U31_M6, model CMOSN: Ps = 0 is less than W
Mosfet M_U3_U91_M6, model CMOSN: Using BSIM VERSION 3.1 or lower
WARNING -- Mosfet M_U3_U91_M6, model CMOSN: Pd = 0 is less than W
WARNING -- Mosfet M_U3_U91_M6, model CMOSN: Ps = 0 is less than W
Mosfet M_U3_U64_M1, model CMOSN: Using BSIM VERSION 3.1 or lower
WARNING -- Mosfet M_U3_U64_M1, model CMOSN: Pd = 0 is less than W
WARNING -- Mosfet M_U3_U64_M1, model CMOSN: Ps = 0 is less than W
Mosfet M_U3_U140_M1, model CMOSN: Using BSIM VERSION 3.1 or lower
WARNING -- Mosfet M_U3_U140_M1, model CMOSN: Pd = 0 is less than W
WARNING -- Mosfet M_U3_U140_M1, model CMOSN: Ps = 0 is less than W
**** 08/06/10 20:46:16 ******* PSpice 16.0.0 (July 2006) ****** ID# 0 ********

 ** Profile: "TEST-transient"  [ D:\Documents\TESIS\fiocs\Design\I-DECODER-001\OrCAD\I-DECODER-6BITS\i-decoder-6bits-pspicefiles\test


 ****     MOSFET MODEL PARAMETERS


******************************************************************************




               CMOSP           CMOSN           
               PMOS            NMOS            
  T_Measured   27              27            
   T_Current   27              27            
       LEVEL    7               7            
           L  100.000000E-06  100.000000E-06 
           W  100.000000E-06  100.000000E-06 
         VTO    -.413091         .294194     
          KP  460.419200E-06  460.419200E-06 
       GAMMA    0               0            
      LAMBDA    0               0            
         RSH    5.9             6.2          
          IS    1.000000E-15    1.000000E-15 
          JS  100.000000E-06  100.000000E-06 
          PB     .821464         .99         
        PBSW     .8008           .8          
          CJ    1.165977E-03  815.244000E-06 
        CJSW  122.005600E-12  165.796200E-12 
          MJ     .425655         .610228     
        MJSW     .1001           .163262     
        CGSO  500.000000E-12  500.000000E-12 
        CGDO  500.000000E-12  500.000000E-12 
        CGBO    1.000000E-12    1.000000E-12 
         TOX    4.500000E-09    4.500000E-09 
          XJ  100.000000E-09  100.000000E-09 
       UCRIT   10.000000E+03   10.000000E+03 
       DELTA     .01             .01         
      DIOMOD    2               2            
          K1     .59909          .541355     
          K2 -669.794000E-09    -.032332     
        LETA    0               0            
        WETA    0               0            
          U0  118.3014        269.8792       
       XPART     .5              .5          
        VTH0    -.413091         .294194     
          K3     .080859        1.000406E-03 
          W0    1.000000E-06  100.000000E-09 
         NLX   25.530790E-09  206.491900E-09 
        DVT0     .819884         .565214     
        DVT1     .744212         .260305     
          UA    1.535614E-09   -1.619209E-09 
          UB    1.000000E-21    2.953688E-18 
          UC -100.000000E-12   57.637850E-12 
        VSAT  173.454300E+03  106.504000E+03 
        RDSW  677.8533        150            
        VOFF    -.142681        -.09299      
     NFACTOR     .94145         2.044734     
        PCLM     .334199        1.968647     
      PDIBL1     .132793        1            
      PDIBL2    9.825629E-03    -.072042     
       DROUT     .81589         1            
      PSCBE1    3.057881E+09    2.350722E+09 
      PSCBE2    5.892816E-09  508.313600E-12 
          A0     .926787        1.425322     
          A1     .01033          .023731     
          A2     .752154         .550469     
       NPEAK  415.890000E+15  235.490000E+15 
         LDD    0               0            
        LITL   36.742350E-09   36.742350E-09 
         UC1  -56.000000E-12  -56.000000E-12 
        PVAG     .122566                     
        KETA     .022875        -.016685     
        ETA0    1.263659E-03    6.051176E-03 
        ETAB   -2.195822E-03 -858.512600E-06 
         K3B   19.71403         5.01511      
        DVT2    -.3             -.067374     
        DSUB    4.891602E-03    3.642935E-03 
         AGS     .166834         .37123      
       DVT1W    0               0            
       DVT2W    0               0            
        PRWG    -.054897         .34061      
        PRWB    -.5             -.183689     
     PDIBLCB   -1.000000E-03    -.1          
         DWG  -25.031010E-09    5.313945E-09 
         DWB  -12.379610E-09   13.440770E-09 
          B0    1.874426E-06  -23.699750E-09 
          B1    5.000000E-06                 
        LINT   27.788770E-09   20.673220E-09 
        WINT                   12.447730E-09 
         DLC   27.788770E-09   20.673220E-09 
         DWC    0              12.447730E-09 
          CF    0               0            
        NOIA    9.900001E+18  100.000000E+18 
        NOIB    2.400000E+03   50.000000E+03 
        NOIC    1.400000E-12   -1.400000E-12 
       LKETA    -.010867      399.601500E-06 
       WKETA     .03239         3.401938E-03 
       PVSAT   50             790.3922       
       PKETA   -6.167985E-03    -.014873     
       PVTH0    1.001339E-03   -4.814415E-03 
         PUA  362.786900E-12  -31.414400E-12 
         PU0    7.380991       -4.028575     
       PRDSW   -5              -2.504635     
       PETA0  100.000000E-06  -67.588480E-06 
         PK2   30.964830E-06    3.159047E-03 
         VTM     .025864         .025864     
       PBSWG     .8008           .8          
       MJSWG     .1001           .163262     
       CJSWG  422.000000E-12  330.000000E-12 


Mosfet M_U3_U31_M5, model CMOSP: Using BSIM VERSION 3.1 or lower
WARNING -- Mosfet M_U3_U31_M5, model CMOSP: Pd = 0 is less than W
WARNING -- Mosfet M_U3_U31_M5, model CMOSP: Ps = 0 is less than W
Mosfet M_U3_U91_M5, model CMOSP: Using BSIM VERSION 3.1 or lower
WARNING -- Mosfet M_U3_U91_M5, model CMOSP: Pd = 0 is less than W
WARNING -- Mosfet M_U3_U91_M5, model CMOSP: Ps = 0 is less than W
Mosfet M_U3_U64_M16, model CMOSP: Using BSIM VERSION 3.1 or lower
WARNING -- Mosfet M_U3_U64_M16, model CMOSP: Pd = 0 is less than W
WARNING -- Mosfet M_U3_U64_M16, model CMOSP: Ps = 0 is less than W
Mosfet M_U3_U140_M7, model CMOSP: Using BSIM VERSION 3.1 or lower
WARNING -- Mosfet M_U3_U140_M7, model CMOSP: Pd = 0 is less than W
WARNING -- Mosfet M_U3_U140_M7, model CMOSP: Ps = 0 is less than W
Mosfet M_U3_U31_M6, model CMOSN: Using BSIM VERSION 3.1 or lower
WARNING -- Mosfet M_U3_U31_M6, model CMOSN: Pd = 0 is less than W
WARNING -- Mosfet M_U3_U31_M6, model CMOSN: Ps = 0 is less than W
Mosfet M_U3_U91_M6, model CMOSN: Using BSIM VERSION 3.1 or lower
WARNING -- Mosfet M_U3_U91_M6, model CMOSN: Pd = 0 is less than W
WARNING -- Mosfet M_U3_U91_M6, model CMOSN: Ps = 0 is less than W
Mosfet M_U3_U64_M1, model CMOSN: Using BSIM VERSION 3.1 or lower
WARNING -- Mosfet M_U3_U64_M1, model CMOSN: Pd = 0 is less than W
WARNING -- Mosfet M_U3_U64_M1, model CMOSN: Ps = 0 is less than W
Mosfet M_U3_U140_M1, model CMOSN: Using BSIM VERSION 3.1 or lower
WARNING -- Mosfet M_U3_U140_M1, model CMOSN: Pd = 0 is less than W
WARNING -- Mosfet M_U3_U140_M1, model CMOSN: Ps = 0 is less than W
**** 08/06/10 20:46:16 ******* PSpice 16.0.0 (July 2006) ****** ID# 0 ********

 ** Profile: "TEST-transient"  [ D:\Documents\TESIS\fiocs\Design\I-DECODER-001\OrCAD\I-DECODER-6BITS\i-decoder-6bits-pspicefiles\test


 ****     INITIAL TRANSIENT SOLUTION       TEMPERATURE =   27.000 DEG C


******************************************************************************



 NODE   VOLTAGE     NODE   VOLTAGE     NODE   VOLTAGE     NODE   VOLTAGE


(   X1)    3.3000  (   X2) 117.3E-09  (   X3) 117.3E-09  (   X4) 117.3E-09      

(  2SB)    3.3000  (  3SB)    3.3000  (  4SB)    3.3000  (  5SB)    3.3000      

(  LSB)    3.3000  (  MSB)    3.3000  (RAMPA)    3.3000  (N09613)    3.3000     

(N30773)    3.0000 (N223780)    3.0000                   (N223781)    3.0000    

(N223783)    3.0000                   (N223784)    3.0000                       

(N223785)    3.0000                   (N223786)    3.0000                       

(N223787)    3.0000                   (N223788)    3.0000                       

(N223789)    3.0000                   (N2237810)    3.0000                      

(N2237811)    3.0000                  (N2237812)    3.0000                      

(N2237813)    3.0000                  (N2237814)    3.0000                      

(U3_ND2SB1) 68.87E-09                 (U3_ND2SB2)    3.3000                     

(U3_ND2SB3)    3.3000                 (U3_ND2SB4)    3.3000                     

(U3_ND2SB5)    3.3000                 (U3_ND2SB6)    3.3000                     

(U3_ND2SB7)    3.3000                 (U3_ND2SB8)    3.3000                     

(U3_ND2SB9)    3.3000                 (U3_ND3SB1) 68.87E-09                     

(U3_ND3SB2)    3.3000                 (U3_ND3SB3)    3.3000                     

(U3_ND3SB4)    3.3000                 (U3_ND3SB5)    3.3000                     

(U3_ND3SB6)    3.3000                 (U3_ND3SB7)    3.3000                     

(U3_ND3SB8)    3.3000                 (U3_ND4SB1) 68.87E-09                     

(U3_ND4SB2)    3.3000                 (U3_ND4SB3)    3.3000                     

(U3_ND4SB4)    3.3000                 (U3_ND5SB1) 68.87E-09                     

(U3_ND5SB2)    3.3000                 (U3_NDLSB1) 68.87E-09                     

(U3_NDLSB2)    3.3000                 (U3_NDLSB3)    3.3000                     

(U3_NDLSB4)    3.3000                 (U3_NDLSB5)    3.3000                     

(U3_NDLSB6)    3.3000                 (U3_NDLSB7)    3.3000                     

(U3_NDLSB8)    3.3000                 (U3_NDLSB9)    3.3000                     

(U3_U6_ND2) 1.057E-06                 (U3_U7_ND2) 1.057E-06                     

(U3_U8_ND2) 1.057E-06                 (U3_U9_ND2) 1.057E-06                     

(U3_N259339) 68.87E-09                (U3_N259543) 68.87E-09                    

(U3_N259565) 68.87E-09                (U3_N259605) 68.87E-09                    

(U3_N564920) 68.87E-09                (U3_N564924) 68.87E-09                    

(U3_N565082) 68.87E-09                (U3_N565094) 68.87E-09                    

(U3_N565104) 68.87E-09                (U3_N565120) 68.87E-09                    

(U3_N565130) 68.87E-09                (U3_N565340) 68.88E-09                    

(U3_N565498)    3.3000                (U3_N567401) 68.88E-09                    

(U3_N567419)    3.3000                (U3_N567801) 68.87E-09                    

(U3_N567811) 68.87E-09                (U3_N567821) 68.87E-09                    

(U3_N567831) 68.87E-09                (U3_N567841) 68.87E-09                    

(U3_N567851) 68.87E-09                (U3_N567861) 68.87E-09                    

(U3_N568485)    3.3000                (U3_N568499) 68.87E-09                    

(U3_N568511) 68.87E-09                (U3_N568523) 68.87E-09                    

(U3_N568535) 68.87E-09                (U3_N568545) 68.87E-09                    

(U3_N568555) 68.87E-09                (U3_N568565) 68.87E-09                    

(U3_N569141) 68.87E-09                (U3_N572064) 68.87E-09                    

(U3_N572074) 68.87E-09                (U3_N572104) 68.87E-09                    

(U3_N572124) 68.87E-09                (U3_N572134) 68.87E-09                    

(U3_N572144) 68.87E-09                (U3_N572160) 68.87E-09                    

(U3_N573020) 68.87E-09                (U3_N573036) 68.87E-09                    

(U3_N573046) 68.87E-09                (U3_N573056) 68.87E-09                    

(U3_N573066) 68.87E-09                (U3_N573076) 68.87E-09                    

(U3_N573086) 68.87E-09                (U3_N573096) 68.87E-09                    

(U3_N578480) 68.87E-09                (U3_N578504) 68.87E-09                    

(U3_N578514) 68.87E-09                (U3_N578524) 68.87E-09                    

(U3_N578534) 68.87E-09                (U3_N578552) 68.87E-09                    

(U3_N578562) 68.87E-09                (U3_N578578) 68.87E-09                    

(U3_N578608) 68.87E-09                (U3_N578622) 68.87E-09                    

(U3_N578636) 68.87E-09                (U3_N578650) 68.87E-09                    

(U3_N578662) 68.87E-09                (U3_N578674) 68.87E-09                    

(U3_N578686) 68.87E-09                (U3_N793529) 68.87E-09                    

(U3_N941987) 117.3E-09                (U3_ND2SB10)    3.3000                    

(U3_ND2SB11)    3.3000                (U3_ND2SB12)    3.3000                    

(U3_ND2SB13)    3.3000                (U3_ND2SB14)    3.3000                    

(U3_ND2SB15)    3.3000                (U3_ND2SB16)    3.3000                    

(U3_NDLSB10)    3.3000                (U3_NDLSB11)    3.3000                    

(U3_NDLSB12)    3.3000                (U3_NDLSB13)    3.3000                    

(U3_NDLSB14)    3.3000                (U3_NDLSB15)    3.3000                    

(U3_NDLSB16)    3.3000                (U3_NDLSB17)    3.3000                    

(U3_NDLSB18)    3.3000                (U3_NDLSB19)    3.3000                    

(U3_NDLSB20)    3.3000                (U3_NDLSB21)    3.3000                    

(U3_NDLSB22)    3.3000                (U3_NDLSB23)    3.3000                    

(U3_NDLSB24)    3.3000                (U3_NDLSB25)    3.3000                    

(U3_NDLSB26)    3.3000                (U3_NDLSB27)    3.3000                    

(U3_NDLSB28)    3.3000                (U3_NDLSB29)    3.3000                    

(U3_NDLSB30)    3.3000                (U3_NDLSB31)    3.3000                    

(U3_NDLSB32)    3.3000                (U3_NDX1LSB) 68.88E-09                    

(U3_NDX2LSB)    3.3000                (U3_NDX3LSB)    3.3000                    

(U3_NDX4LSB)    3.3000                (U3_U10_ND2) 1.057E-06                    

(U3_U12_ND2) 1.236E-06                (U3_U12_ND3) 824.3E-09                    

(U3_U12_ND4) 412.1E-09                (U3_U13_ND2) 913.2E-09                    

(U3_U13_ND3) 782.7E-09                (U3_U13_ND4) 652.3E-09                    

(U3_U13_ND5) 521.8E-09                (U3_U13_ND6) 391.4E-09                    

(U3_U13_ND7) 260.9E-09                (U3_U13_ND8) 130.5E-09                    

(U3_U24_ND2) 1.057E-06                (U3_U25_ND2) 1.057E-06                    

(U3_U26_ND2) 1.057E-06                (U3_U27_ND2) 1.057E-06                    

(U3_U28_ND2) 1.057E-06                (U3_U29_ND2) 1.057E-06                    

(U3_U30_ND2) 1.057E-06                (U3_U47_ND2) 1.057E-06                    

(U3_U48_ND2) 1.057E-06                (U3_U49_ND2) 1.057E-06                    

(U3_U50_ND2) 1.057E-06                (U3_U51_ND2) 1.057E-06                    

(U3_U52_ND2) 1.057E-06                (U3_U53_ND2) 1.057E-06                    

(U3_U54_ND2) 1.057E-06                (U3_U55_ND2) 1.057E-06                    

(U3_U56_ND2) 1.057E-06                (U3_U57_ND2) 1.057E-06                    

(U3_U58_ND2) 1.057E-06                (U3_U59_ND2) 1.057E-06                    

(U3_U60_ND2) 1.057E-06                (U3_U61_ND2) 1.057E-06                    

(U3_U62_ND2)    2.7916                (U3_U63_ND2) 913.2E-09                    

(U3_U63_ND3) 782.7E-09                (U3_U63_ND4) 652.3E-09                    

(U3_U63_ND5) 521.8E-09                (U3_U63_ND6) 391.4E-09                    

(U3_U63_ND7) 260.9E-09                (U3_U63_ND8) 130.5E-09                    

(U3_U64_ND2) 102.7E-09                (U3_U64_ND3) 87.99E-09                    

(U3_U64_ND4) 73.33E-09                (U3_U64_ND5) 58.66E-09                    

(U3_U64_ND6) 44.00E-09                (U3_U64_ND7) 29.33E-09                    

(U3_U64_ND8) 14.67E-09                (U3_U84_ND2) 1.057E-06                    

(U3_U85_ND2) 1.057E-06                (U3_U86_ND2) 1.057E-06                    

(U3_U87_ND2) 1.057E-06                (U3_U88_ND2) 1.057E-06                    

(U3_U89_ND2) 1.057E-06                (U3_U90_ND2) 1.057E-06                    

(U3_U91_ND2) 1.057E-06                (U3_U92_ND2) 1.057E-06                    

(U3_U93_ND2) 1.057E-06                (U3_U94_ND2) 1.057E-06                    

(U3_U95_ND2) 1.057E-06                (U3_U96_ND2) 1.057E-06                    

(U3_U97_ND2) 1.057E-06                (U3_U98_ND2) 1.057E-06                    

(U3_U99_ND2) 913.2E-09                (U3_U99_ND3) 782.7E-09                    

(U3_U99_ND4) 652.3E-09                (U3_U99_ND5) 521.8E-09                    

(U3_U99_ND6) 391.4E-09                (U3_U99_ND7) 260.9E-09                    

(U3_U99_ND8) 130.5E-09                (U3_N1033696) 68.87E-09                   

(U3_U100_ND2) 102.7E-09               (U3_U100_ND3) 87.99E-09                   

(U3_U100_ND4) 73.33E-09               (U3_U100_ND5) 58.66E-09                   

(U3_U100_ND6) 44.00E-09               (U3_U100_ND7) 29.33E-09                   

(U3_U100_ND8) 14.67E-09               (U3_U117_ND2) 1.057E-06                   

(U3_U118_ND2) 1.057E-06               (U3_U119_ND2) 1.057E-06                   

(U3_U120_ND2) 1.057E-06               (U3_U121_ND2) 1.057E-06                   

(U3_U122_ND2) 1.057E-06               (U3_U123_ND2) 1.057E-06                   

(U3_U124_ND2) 1.057E-06               (U3_U125_ND2) 1.057E-06                   

(U3_U126_ND2) 1.057E-06               (U3_U127_ND2) 1.057E-06                   

(U3_U129_ND2) 1.057E-06               (U3_U130_ND2) 1.057E-06                   

(U3_U131_ND2) 1.057E-06               (U3_U132_ND2) 1.057E-06                   

(U3_U133_ND2) 1.057E-06               (U3_U134_ND2) 102.7E-09                   

(U3_U134_ND3) 87.99E-09               (U3_U134_ND4) 73.33E-09                   

(U3_U134_ND5) 58.66E-09               (U3_U134_ND6) 44.00E-09                   

(U3_U134_ND7) 29.33E-09               (U3_U134_ND8) 14.67E-09                   

(U3_U135_ND2) 102.7E-09               (U3_U135_ND3) 87.99E-09                   

(U3_U135_ND4) 73.33E-09               (U3_U135_ND5) 58.66E-09                   

(U3_U135_ND6) 44.00E-09               (U3_U135_ND7) 29.33E-09                   

(U3_U135_ND8) 14.67E-09               (U3_U140_ND2) 1.236E-06                   

(U3_U140_ND3) 824.3E-09               (U3_U140_ND4) 412.1E-09               




    VOLTAGE SOURCE CURRENTS
    NAME         CURRENT

    V_V1         0.000E+00
    V_VDD       -2.498E-08
    V_SENALES_V13  -3.000E-03
    V_SENALES_V8  -3.000E-03
    V_SENALES_V6  -3.000E-03
    V_SENALES_V3  -3.000E-03
    V_SENALES_V14  -3.000E-03
    V_SENALES_V11  -3.000E-03
    V_SENALES_V4  -3.000E-03
    V_SENALES_V7  -3.000E-03
    V_SENALES_V12  -3.000E-03
    V_SENALES_V9  -3.000E-03
    V_SENALES_V1  -3.000E-03
    V_SENALES_V5  -3.000E-03
    V_SENALES_V15  -3.000E-03
    V_SENALES_V2  -3.000E-03
    V_SENALES_V10  -3.000E-03

    TOTAL POWER DISSIPATION   1.35E-01  WATTS



          JOB CONCLUDED

**** 08/06/10 20:46:16 ******* PSpice 16.0.0 (July 2006) ****** ID# 0 ********

 ** Profile: "TEST-transient"  [ D:\Documents\TESIS\fiocs\Design\I-DECODER-001\OrCAD\I-DECODER-6BITS\i-decoder-6bits-pspicefiles\test


 ****     JOB STATISTICS SUMMARY


******************************************************************************



  Total job time (using Solver 1)   =       15.02
