
**** 08/05/09 20:42:20 ******** PSpice Lite (Oct 2008) ******** ID# 10813 ****

 ** Profile: "SCHEMATIC1-bode"  [ D:\DOCUMENTS\TESIS\TRUNK\DESIGN\I-PBFILTER-01\I-PBFILTER-01-PSpiceFiles\SCHEMATIC1\bode.sim ] 


 ****     CIRCUIT DESCRIPTION


******************************************************************************




** Creating circuit file "bode.cir" 
** WARNING: THIS AUTOMATICALLY GENERATED FILE MAY BE OVERWRITTEN BY SUBSEQUENT SIMULATIONS

*Libraries: 
* Profile Libraries :
* Local Libraries :
.LIB "../../../i-pbfilter-01-pspicefiles/i-pbfilter-01.lib" 
* From [PSPICE NETLIST] section of C:\OrCAD\OrCAD_16.2\tools\PSpice\PSpice.ini file:
.lib "nomd.lib" 

*Analysis directives: 
.AC DEC 100 1 1G
.PROBE V(alias(*)) I(alias(*)) W(alias(*)) D(alias(*)) NOISE(alias(*)) 
.INC "..\SCHEMATIC1.net" 



**** INCLUDING SCHEMATIC1.net ****
* source I-PBFILTER-01
R_R2         0 N33385  1M TC=0,0 
I_I1         N33385 0 DC 0Adc AC 0Aac
+PULSE 0 1m 1.5p 3p 7p 0 0
V_V4         N18503 0 2.5
C_C2         N18748 N15297  1p  TC=0,0 
M_M6         N15202 N14642 N15404 0 NMOS  
+ L=1.5u  
+ W=10u         
M_M1         N14636 N29033 N14698 0 NMOS  
+ L=1.5u  
+ W=10u         
I_I2         N33385 0 DC 0Adc AC 0Aac
+PULSE 0 .3m 1.5p 1p 130p 9p 0
M_M7         N15297 N15202 N17112 N17112 PMOS  
+ L=1.5u  
+ W=20u         
V_V5         N18581 0 1.3
M_M2         N14642 N14636 N17112 N17112 PMOS  
+ L=1.5u  
+ W=20u         
M_M8         N15404 N18581 0 0 NMOS  
+ L=1.5u  
+ W=4.5u         
V_V1         N17112 0 5
M_M9         N15297 N15297 N15404 0 NMOS  
+ L=1.5u  
+ W=10u         
M_M3         N14698 N18832 0 0 NMOS  
+ L=1.5u  
+ W=4.5u         
M_M10         N15202 N15202 N17112 N17112 PMOS  
+ L=1.5u  
+ W=20u         
V_V3         N18832 0 1.3
C_C3         TEST N33385  10n  TC=0,0 
V_V6         N18748 0 2.5
M_M4         N14642 N15297 N14698 0 NMOS  
+ L=1.5u  
+ W=10u         
V_V8         N29033 0 DC 4.5 AC 1m 
C_C1         N18503 N14642  100p  TC=0,0 
M_M5         N14636 N14636 N17112 N17112 PMOS  
+ L=1.5u  
+ W=20u         

**** RESUMING bode.cir ****
.END

ERROR -- Less than 2 connections at node TEST
ERROR -- Node TEST is floating