
**** 04/16/10 20:51:42 ******* PSpice 16.0.0 (July 2006) ****** ID# 0 ********

 **** 04/13/10 23:25:08 ******* PSpice 16.0.0 (July 2006) ****** ID# 0 ********


 ****     CIRCUIT DESCRIPTION


******************************************************************************




 ** Profile: "PRUEBA-transient"  [ D:\Documents\TESIS\fiocs\Design\I-FLASH-01\OrCAD\I-FLASH-6BITS\i-flash-6bits-pspicefiles\prueba\t


 ****     CIRCUIT DESCRIPTION


******************************************************************************




** Creating circuit file "transient.cir" 
** WARNING: THIS AUTOMATICALLY GENERATED FILE MAY BE OVERWRITTEN BY SUBSEQUENT SIMULATIONS

*Libraries: 
* Profile Libraries :
* Local Libraries :
*.LIB "../../../i-flash-6bits-pspicefiles/i-flash-6bits.lib" 
.LIB "D:\Documents\TESIS\fiocs\Design\I-FLASH-01\OrCAD\I-FLASH-6BITS\i-flash-6bits-PSpiceFiles\i-flash-6bits.lib" 
* From [PSPICE NETLIST] section of C:\OrCAD\OrCAD_16.0\tools\PSpice\PSpice.ini file:
.lib "nom.lib" 

*Analysis directives: 
.TRAN  0 15n 0 50p 
.OPTIONS NODE
*.OPTIONS ITL1= 300
*.OPTIONS ITL2= 100
*.PROBE V(alias(*)) I(alias(*)) W(alias(*)) D(alias(*)) NOISE(alias(*)) 
*.INC "..\PRUEBA.net" 



**** INCLUDING PRUEBA.net ****
* source I-FLASH-6BITS
R_R6         LSB N116990  100k  
R_R7         N-MSB N116990  100k  
V_Clock         N116976 0  
+PULSE 0 3 .4u 0.05u 0.05u .4u 1u
R_R8         N-5SB N116990  100k  
M_C_F_C38_M4         C_F_C38_ND+ C_F_C38_ND- N116990 N116990 CMOSP  
+ L=.2u  
+ W=.6u         
M_C_F_C38_M5         C_F_C38_NDBIAS N117027 0 0 CMOSN  
+ L=.2u  
+ W=.6u         
M_C_F_C38_M6         Q38 C_F_C38_ND+ N116990 N116990 CMOSP  
+ L=.2u  
+ W=.8u         
M_C_F_C38_M7         Q38 N117027 0 0 CMOSN  
+ L=.2u  
+ W=.4u         
M_C_F_C38_M1         C_F_C38_ND- N117007 C_F_C38_NDBIAS 0 CMOSN  
+ L=.2u  
+ W=.4u         
M_C_F_C38_M2         C_F_C38_ND+ C_N117508 C_F_C38_NDBIAS 0 CMOSN  
+ L=.2u  
+ W=.4u         
M_C_F_C38_M3         C_F_C38_ND- C_F_C38_ND- N116990 N116990 CMOSP  
+ L=.2u  
+ W=.6u         
M_C_F_C5_M4         C_F_C5_ND+ C_F_C5_ND- N116990 N116990 CMOSP  
+ L=.2u  
+ W=.6u         
M_C_F_C5_M5         C_F_C5_NDBIAS N117027 0 0 CMOSN  
+ L=.2u  
+ W=.6u         
M_C_F_C5_M6         Q5 C_F_C5_ND+ N116990 N116990 CMOSP  
+ L=.2u  
+ W=.8u         
M_C_F_C5_M7         Q5 N117027 0 0 CMOSN  
+ L=.2u  
+ W=.4u         
M_C_F_C5_M1         C_F_C5_ND- N117007 C_F_C5_NDBIAS 0 CMOSN  
+ L=.2u  
+ W=.4u         
M_C_F_C5_M2         C_F_C5_ND+ C_N117574 C_F_C5_NDBIAS 0 CMOSN  
+ L=.2u  
+ W=.4u         
M_C_F_C5_M3         C_F_C5_ND- C_F_C5_ND- N116990 N116990 CMOSP  
+ L=.2u  
+ W=.6u         
M_C_F_C25_M4         C_F_C25_ND+ C_F_C25_ND- N116990 N116990 CMOSP  
+ L=.2u  
+ W=.6u         
M_C_F_C25_M5         C_F_C25_NDBIAS N117027 0 0 CMOSN  
+ L=.2u  
+ W=.6u         
M_C_F_C25_M6         Q25 C_F_C25_ND+ N116990 N116990 CMOSP  
+ L=.2u  
+ W=.8u         
M_C_F_C25_M7         Q25 N117027 0 0 CMOSN  
+ L=.2u  
+ W=.4u         
M_C_F_C25_M1         C_F_C25_ND- N117007 C_F_C25_NDBIAS 0 CMOSN  
+ L=.2u  
+ W=.4u         
M_C_F_C25_M2         C_F_C25_ND+ C_N117534 C_F_C25_NDBIAS 0 CMOSN  
+ L=.2u  
+ W=.4u         
M_C_F_C25_M3         C_F_C25_ND- C_F_C25_ND- N116990 N116990 CMOSP  
+ L=.2u  
+ W=.6u         
M_C_F_C31_M4         C_F_C31_ND+ C_F_C31_ND- N116990 N116990 CMOSP  
+ L=.2u  
+ W=.6u         
M_C_F_C31_M5         C_F_C31_NDBIAS N117027 0 0 CMOSN  
+ L=.2u  
+ W=.6u         
M_C_F_C31_M6         Q31 C_F_C31_ND+ N116990 N116990 CMOSP  
+ L=.2u  
+ W=.8u         
M_C_F_C31_M7         Q31 N117027 0 0 CMOSN  
+ L=.2u  
+ W=.4u         
M_C_F_C31_M1         C_F_C31_ND- N117007 C_F_C31_NDBIAS 0 CMOSN  
+ L=.2u  
+ W=.4u         
M_C_F_C31_M2         C_F_C31_ND+ C_N117522 C_F_C31_NDBIAS 0 CMOSN  
+ L=.2u  
+ W=.4u         
M_C_F_C31_M3         C_F_C31_ND- C_F_C31_ND- N116990 N116990 CMOSP  
+ L=.2u  
+ W=.6u         
M_C_F_C8_M4         C_F_C8_ND+ C_F_C8_ND- N116990 N116990 CMOSP  
+ L=.2u  
+ W=.6u         
M_C_F_C8_M5         C_F_C8_NDBIAS N117027 0 0 CMOSN  
+ L=.2u  
+ W=.6u         
M_C_F_C8_M6         Q8 C_F_C8_ND+ N116990 N116990 CMOSP  
+ L=.2u  
+ W=.8u         
M_C_F_C8_M7         Q8 N117027 0 0 CMOSN  
+ L=.2u  
+ W=.4u         
M_C_F_C8_M1         C_F_C8_ND- N117007 C_F_C8_NDBIAS 0 CMOSN  
+ L=.2u  
+ W=.4u         
M_C_F_C8_M2         C_F_C8_ND+ C_N117576 C_F_C8_NDBIAS 0 CMOSN  
+ L=.2u  
+ W=.4u         
M_C_F_C8_M3         C_F_C8_ND- C_F_C8_ND- N116990 N116990 CMOSP  
+ L=.2u  
+ W=.6u         
M_C_F_C19_M4         C_F_C19_ND+ C_F_C19_ND- N116990 N116990 CMOSP  
+ L=.2u  
+ W=.6u         
M_C_F_C19_M5         C_F_C19_NDBIAS N117027 0 0 CMOSN  
+ L=.2u  
+ W=.6u         
M_C_F_C19_M6         Q19 C_F_C19_ND+ N116990 N116990 CMOSP  
+ L=.2u  
+ W=.8u         
M_C_F_C19_M7         Q19 N117027 0 0 CMOSN  
+ L=.2u  
+ W=.4u         
M_C_F_C19_M1         C_F_C19_ND- N117007 C_F_C19_NDBIAS 0 CMOSN  
+ L=.2u  
+ W=.4u         
M_C_F_C19_M2         C_F_C19_ND+ C_N117546 C_F_C19_NDBIAS 0 CMOSN  
+ L=.2u  
+ W=.4u         
M_C_F_C19_M3         C_F_C19_ND- C_F_C19_ND- N116990 N116990 CMOSP  
+ L=.2u  
+ W=.6u         
M_C_F_C2_M4         C_F_C2_ND+ C_F_C2_ND- N116990 N116990 CMOSP  
+ L=.2u  
+ W=.6u         
M_C_F_C2_M5         C_F_C2_NDBIAS N117027 0 0 CMOSN  
+ L=.2u  
+ W=.6u         
M_C_F_C2_M6         Q2 C_F_C2_ND+ N116990 N116990 CMOSP  
+ L=.2u  
+ W=.8u         
M_C_F_C2_M7         Q2 N117027 0 0 CMOSN  
+ L=.2u  
+ W=.4u         
M_C_F_C2_M1         C_F_C2_ND- N117007 C_F_C2_NDBIAS 0 CMOSN  
+ L=.2u  
+ W=.4u         
M_C_F_C2_M2         C_F_C2_ND+ C_N117564 C_F_C2_NDBIAS 0 CMOSN  
+ L=.2u  
+ W=.4u         
M_C_F_C2_M3         C_F_C2_ND- C_F_C2_ND- N116990 N116990 CMOSP  
+ L=.2u  
+ W=.6u         
M_C_F_C46_M4         C_F_C46_ND+ C_F_C46_ND- N116990 N116990 CMOSP  
+ L=.2u  
+ W=.6u         
M_C_F_C46_M5         C_F_C46_NDBIAS N117027 0 0 CMOSN  
+ L=.2u  
+ W=.6u         
M_C_F_C46_M6         Q46 C_F_C46_ND+ N116990 N116990 CMOSP  
+ L=.2u  
+ W=.8u         
M_C_F_C46_M7         Q46 N117027 0 0 CMOSN  
+ L=.2u  
+ W=.4u         
M_C_F_C46_M1         C_F_C46_ND- N117007 C_F_C46_NDBIAS 0 CMOSN  
+ L=.2u  
+ W=.4u         
M_C_F_C46_M2         C_F_C46_ND+ C_N117494 C_F_C46_NDBIAS 0 CMOSN  
+ L=.2u  
+ W=.4u         
M_C_F_C46_M3         C_F_C46_ND- C_F_C46_ND- N116990 N116990 CMOSP  
+ L=.2u  
+ W=.6u         
M_C_F_C47_M4         C_F_C47_ND+ C_F_C47_ND- N116990 N116990 CMOSP  
+ L=.2u  
+ W=.6u         
M_C_F_C47_M5         C_F_C47_NDBIAS N117027 0 0 CMOSN  
+ L=.2u  
+ W=.6u         
M_C_F_C47_M6         Q47 C_F_C47_ND+ N116990 N116990 CMOSP  
+ L=.2u  
+ W=.8u         
M_C_F_C47_M7         Q47 N117027 0 0 CMOSN  
+ L=.2u  
+ W=.4u         
M_C_F_C47_M1         C_F_C47_ND- N117007 C_F_C47_NDBIAS 0 CMOSN  
+ L=.2u  
+ W=.4u         
M_C_F_C47_M2         C_F_C47_ND+ C_N117496 C_F_C47_NDBIAS 0 CMOSN  
+ L=.2u  
+ W=.4u         
M_C_F_C47_M3         C_F_C47_ND- C_F_C47_ND- N116990 N116990 CMOSP  
+ L=.2u  
+ W=.6u         
M_C_F_C60_M4         C_F_C60_ND+ C_F_C60_ND- N116990 N116990 CMOSP  
+ L=.2u  
+ W=.6u         
M_C_F_C60_M5         C_F_C60_NDBIAS N117027 0 0 CMOSN  
+ L=.2u  
+ W=.6u         
M_C_F_C60_M6         Q60 C_F_C60_ND+ N116990 N116990 CMOSP  
+ L=.2u  
+ W=.8u         
M_C_F_C60_M7         Q60 N117027 0 0 CMOSN  
+ L=.2u  
+ W=.4u         
M_C_F_C60_M1         C_F_C60_ND- N117007 C_F_C60_NDBIAS 0 CMOSN  
+ L=.2u  
+ W=.4u         
M_C_F_C60_M2         C_F_C60_ND+ C_N119887 C_F_C60_NDBIAS 0 CMOSN  
+ L=.2u  
+ W=.4u         
M_C_F_C60_M3         C_F_C60_ND- C_F_C60_ND- N116990 N116990 CMOSP  
+ L=.2u  
+ W=.6u         
M_C_F_C45_M4         C_F_C45_ND+ C_F_C45_ND- N116990 N116990 CMOSP  
+ L=.2u  
+ W=.6u         
M_C_F_C45_M5         C_F_C45_NDBIAS N117027 0 0 CMOSN  
+ L=.2u  
+ W=.6u         
M_C_F_C45_M6         Q45 C_F_C45_ND+ N116990 N116990 CMOSP  
+ L=.2u  
+ W=.8u         
M_C_F_C45_M7         Q45 N117027 0 0 CMOSN  
+ L=.2u  
+ W=.4u         
M_C_F_C45_M1         C_F_C45_ND- N117007 C_F_C45_NDBIAS 0 CMOSN  
+ L=.2u  
+ W=.4u         
M_C_F_C45_M2         C_F_C45_ND+ C_N117492 C_F_C45_NDBIAS 0 CMOSN  
+ L=.2u  
+ W=.4u         
M_C_F_C45_M3         C_F_C45_ND- C_F_C45_ND- N116990 N116990 CMOSP  
+ L=.2u  
+ W=.6u         
M_C_F_C54_M4         C_F_C54_ND+ C_F_C54_ND- N116990 N116990 CMOSP  
+ L=.2u  
+ W=.6u         
M_C_F_C54_M5         C_F_C54_NDBIAS N117027 0 0 CMOSN  
+ L=.2u  
+ W=.6u         
M_C_F_C54_M6         Q54 C_F_C54_ND+ N116990 N116990 CMOSP  
+ L=.2u  
+ W=.8u         
M_C_F_C54_M7         Q54 N117027 0 0 CMOSN  
+ L=.2u  
+ W=.4u         
M_C_F_C54_M1         C_F_C54_ND- N117007 C_F_C54_NDBIAS 0 CMOSN  
+ L=.2u  
+ W=.4u         
M_C_F_C54_M2         C_F_C54_ND+ C_N119899 C_F_C54_NDBIAS 0 CMOSN  
+ L=.2u  
+ W=.4u         
M_C_F_C54_M3         C_F_C54_ND- C_F_C54_ND- N116990 N116990 CMOSP  
+ L=.2u  
+ W=.6u         
M_C_F_C34_M4         C_F_C34_ND+ C_F_C34_ND- N116990 N116990 CMOSP  
+ L=.2u  
+ W=.6u         
M_C_F_C34_M5         C_F_C34_NDBIAS N117027 0 0 CMOSN  
+ L=.2u  
+ W=.6u         
M_C_F_C34_M6         Q34 C_F_C34_ND+ N116990 N116990 CMOSP  
+ L=.2u  
+ W=.8u         
M_C_F_C34_M7         Q34 N117027 0 0 CMOSN  
+ L=.2u  
+ W=.4u         
M_C_F_C34_M1         C_F_C34_ND- N117007 C_F_C34_NDBIAS 0 CMOSN  
+ L=.2u  
+ W=.4u         
M_C_F_C34_M2         C_F_C34_ND+ C_N117516 C_F_C34_NDBIAS 0 CMOSN  
+ L=.2u  
+ W=.4u         
M_C_F_C34_M3         C_F_C34_ND- C_F_C34_ND- N116990 N116990 CMOSP  
+ L=.2u  
+ W=.6u         
M_C_F_C26_M4         C_F_C26_ND+ C_F_C26_ND- N116990 N116990 CMOSP  
+ L=.2u  
+ W=.6u         
M_C_F_C26_M5         C_F_C26_NDBIAS N117027 0 0 CMOSN  
+ L=.2u  
+ W=.6u         
M_C_F_C26_M6         Q26 C_F_C26_ND+ N116990 N116990 CMOSP  
+ L=.2u  
+ W=.8u         
M_C_F_C26_M7         Q26 N117027 0 0 CMOSN  
+ L=.2u  
+ W=.4u         
M_C_F_C26_M1         C_F_C26_ND- N117007 C_F_C26_NDBIAS 0 CMOSN  
+ L=.2u  
+ W=.4u         
M_C_F_C26_M2         C_F_C26_ND+ C_N117536 C_F_C26_NDBIAS 0 CMOSN  
+ L=.2u  
+ W=.4u         
M_C_F_C26_M3         C_F_C26_ND- C_F_C26_ND- N116990 N116990 CMOSP  
+ L=.2u  
+ W=.6u         
M_C_F_C48_M4         C_F_C48_ND+ C_F_C48_ND- N116990 N116990 CMOSP  
+ L=.2u  
+ W=.6u         
M_C_F_C48_M5         C_F_C48_NDBIAS N117027 0 0 CMOSN  
+ L=.2u  
+ W=.6u         
M_C_F_C48_M6         Q48 C_F_C48_ND+ N116990 N116990 CMOSP  
+ L=.2u  
+ W=.8u         
M_C_F_C48_M7         Q48 N117027 0 0 CMOSN  
+ L=.2u  
+ W=.4u         
M_C_F_C48_M1         C_F_C48_ND- N117007 C_F_C48_NDBIAS 0 CMOSN  
+ L=.2u  
+ W=.4u         
M_C_F_C48_M2         C_F_C48_ND+ C_N117498 C_F_C48_NDBIAS 0 CMOSN  
+ L=.2u  
+ W=.4u         
M_C_F_C48_M3         C_F_C48_ND- C_F_C48_ND- N116990 N116990 CMOSP  
+ L=.2u  
+ W=.6u         
M_C_F_C44_M4         C_F_C44_ND+ C_F_C44_ND- N116990 N116990 CMOSP  
+ L=.2u  
+ W=.6u         
M_C_F_C44_M5         C_F_C44_NDBIAS N117027 0 0 CMOSN  
+ L=.2u  
+ W=.6u         
M_C_F_C44_M6         Q44 C_F_C44_ND+ N116990 N116990 CMOSP  
+ L=.2u  
+ W=.8u         
M_C_F_C44_M7         Q44 N117027 0 0 CMOSN  
+ L=.2u  
+ W=.4u         
M_C_F_C44_M1         C_F_C44_ND- N117007 C_F_C44_NDBIAS 0 CMOSN  
+ L=.2u  
+ W=.4u         
M_C_F_C44_M2         C_F_C44_ND+ C_N117490 C_F_C44_NDBIAS 0 CMOSN  
+ L=.2u  
+ W=.4u         
M_C_F_C44_M3         C_F_C44_ND- C_F_C44_ND- N116990 N116990 CMOSP  
+ L=.2u  
+ W=.6u         
M_C_F_C7_M4         C_F_C7_ND+ C_F_C7_ND- N116990 N116990 CMOSP  
+ L=.2u  
+ W=.6u         
M_C_F_C7_M5         C_F_C7_NDBIAS N117027 0 0 CMOSN  
+ L=.2u  
+ W=.6u         
M_C_F_C7_M6         Q7 C_F_C7_ND+ N116990 N116990 CMOSP  
+ L=.2u  
+ W=.8u         
M_C_F_C7_M7         Q7 N117027 0 0 CMOSN  
+ L=.2u  
+ W=.4u         
M_C_F_C7_M1         C_F_C7_ND- N117007 C_F_C7_NDBIAS 0 CMOSN  
+ L=.2u  
+ W=.4u         
M_C_F_C7_M2         C_F_C7_ND+ C_N117570 C_F_C7_NDBIAS 0 CMOSN  
+ L=.2u  
+ W=.4u         
M_C_F_C7_M3         C_F_C7_ND- C_F_C7_ND- N116990 N116990 CMOSP  
+ L=.2u  
+ W=.6u         
M_C_F_C18_M4         C_F_C18_ND+ C_F_C18_ND- N116990 N116990 CMOSP  
+ L=.2u  
+ W=.6u         
M_C_F_C18_M5         C_F_C18_NDBIAS N117027 0 0 CMOSN  
+ L=.2u  
+ W=.6u         
M_C_F_C18_M6         Q18 C_F_C18_ND+ N116990 N116990 CMOSP  
+ L=.2u  
+ W=.8u         
M_C_F_C18_M7         Q18 N117027 0 0 CMOSN  
+ L=.2u  
+ W=.4u         
M_C_F_C18_M1         C_F_C18_ND- N117007 C_F_C18_NDBIAS 0 CMOSN  
+ L=.2u  
+ W=.4u         
M_C_F_C18_M2         C_F_C18_ND+ C_N117548 C_F_C18_NDBIAS 0 CMOSN  
+ L=.2u  
+ W=.4u         
M_C_F_C18_M3         C_F_C18_ND- C_F_C18_ND- N116990 N116990 CMOSP  
+ L=.2u  
+ W=.6u         
M_C_F_R6_NAND6_M5         C_F_R6_N62152 C_F_R6_Y N116990 N116990 CMOSP  
+ L=.18u  
+ W=.2u         
M_C_F_R6_NAND6_M6         C_F_R6_N62152 C_F_R6_Y C_F_R6_NAND6_ND2 0 CMOSN  
+ L=.18u  
+ W=.18u         
M_C_F_R6_NAND6_M2         C_F_R6_NAND6_ND2 C_F_D-MSB 0 0 CMOSN  
+ L=.18u  
+ W=.18u         
M_C_F_R6_NAND6_M4         C_F_R6_N62152 C_F_D-MSB N116990 N116990 CMOSP  
+ L=.18u  
+ W=.2u         
M_C_F_R6_NAND1_M2         C_F_R6_NAND1_ND2 N116976 C_F_R6_NAND1_ND3 0 CMOSN  
+ L=.18u  
+ W=.18u         
M_C_F_R6_NAND1_M3         C_F_R6_Y C_F_R6_X N116990 N116990 CMOSP  
+ L=.18u  
+ W=.2u         
M_C_F_R6_NAND1_M6         C_F_R6_NAND1_ND3 C_F_R6_N62152 0 0 CMOSN  
+ L=.18u  
+ W=.18u         
M_C_F_R6_NAND1_M4         C_F_R6_Y N116976 N116990 N116990 CMOSP  
+ L=.18u  
+ W=.2u         
M_C_F_R6_NAND1_M1         C_F_R6_Y C_F_R6_X C_F_R6_NAND1_ND2 0 CMOSN  
+ L=.18u  
+ W=.18u         
M_C_F_R6_NAND1_M5         C_F_R6_Y C_F_R6_N62152 N116990 N116990 CMOSP  
+ L=.18u  
+ W=.2u         
M_C_F_R6_NAND2_M5         C_F_R6_N62128 C_F_R6_N62152 N116990 N116990 CMOSP  
+ L=.18u  
+ W=.2u         
M_C_F_R6_NAND2_M6         C_F_R6_N62128 C_F_R6_N62152 C_F_R6_NAND2_ND2 0 CMOSN 
+  
+ L=.18u  
+ W=.18u         
M_C_F_R6_NAND2_M2         C_F_R6_NAND2_ND2 C_F_R6_X 0 0 CMOSN  
+ L=.18u  
+ W=.18u         
M_C_F_R6_NAND2_M4         C_F_R6_N62128 C_F_R6_X N116990 N116990 CMOSP  
+ L=.18u  
+ W=.2u         
M_C_F_R6_NAND3_M5         C_F_R6_X C_F_R6_N62128 N116990 N116990 CMOSP  
+ L=.18u  
+ W=.2u         
M_C_F_R6_NAND3_M6         C_F_R6_X C_F_R6_N62128 C_F_R6_NAND3_ND2 0 CMOSN  
+ L=.18u  
+ W=.18u         
M_C_F_R6_NAND3_M2         C_F_R6_NAND3_ND2 N116976 0 0 CMOSN  
+ L=.18u  
+ W=.18u         
M_C_F_R6_NAND3_M4         C_F_R6_X N116976 N116990 N116990 CMOSP  
+ L=.18u  
+ W=.2u         
M_C_F_R6_NAND4_M5         MSB C_F_R6_X N116990 N116990 CMOSP  
+ L=.18u  
+ W=.2u         
M_C_F_R6_NAND4_M6         MSB C_F_R6_X C_F_R6_NAND4_ND2 0 CMOSN  
+ L=.18u  
+ W=.18u         
M_C_F_R6_NAND4_M2         C_F_R6_NAND4_ND2 N-MSB 0 0 CMOSN  
+ L=.18u  
+ W=.18u         
M_C_F_R6_NAND4_M4         MSB N-MSB N116990 N116990 CMOSP  
+ L=.18u  
+ W=.2u         
M_C_F_R6_NAND5_M5         N-MSB MSB N116990 N116990 CMOSP  
+ L=.18u  
+ W=.2u         
M_C_F_R6_NAND5_M6         N-MSB MSB C_F_R6_NAND5_ND2 0 CMOSN  
+ L=.18u  
+ W=.18u         
M_C_F_R6_NAND5_M2         C_F_R6_NAND5_ND2 C_F_R6_Y 0 0 CMOSN  
+ L=.18u  
+ W=.18u         
M_C_F_R6_NAND5_M4         N-MSB C_F_R6_Y N116990 N116990 CMOSP  
+ L=.18u  
+ W=.2u         
M_C_F_C4_M4         C_F_C4_ND+ C_F_C4_ND- N116990 N116990 CMOSP  
+ L=.2u  
+ W=.6u         
M_C_F_C4_M5         C_F_C4_NDBIAS N117027 0 0 CMOSN  
+ L=.2u  
+ W=.6u         
M_C_F_C4_M6         Q4 C_F_C4_ND+ N116990 N116990 CMOSP  
+ L=.2u  
+ W=.8u         
M_C_F_C4_M7         Q4 N117027 0 0 CMOSN  
+ L=.2u  
+ W=.4u         
M_C_F_C4_M1         C_F_C4_ND- N117007 C_F_C4_NDBIAS 0 CMOSN  
+ L=.2u  
+ W=.4u         
M_C_F_C4_M2         C_F_C4_ND+ C_N117566 C_F_C4_NDBIAS 0 CMOSN  
+ L=.2u  
+ W=.4u         
M_C_F_C4_M3         C_F_C4_ND- C_F_C4_ND- N116990 N116990 CMOSP  
+ L=.2u  
+ W=.6u         
M_C_F_C49_M4         C_F_C49_ND+ C_F_C49_ND- N116990 N116990 CMOSP  
+ L=.2u  
+ W=.6u         
M_C_F_C49_M5         C_F_C49_NDBIAS N117027 0 0 CMOSN  
+ L=.2u  
+ W=.6u         
M_C_F_C49_M6         Q49 C_F_C49_ND+ N116990 N116990 CMOSP  
+ L=.2u  
+ W=.8u         
M_C_F_C49_M7         Q49 N117027 0 0 CMOSN  
+ L=.2u  
+ W=.4u         
M_C_F_C49_M1         C_F_C49_ND- N117007 C_F_C49_NDBIAS 0 CMOSN  
+ L=.2u  
+ W=.4u         
M_C_F_C49_M2         C_F_C49_ND+ C_N117500 C_F_C49_NDBIAS 0 CMOSN  
+ L=.2u  
+ W=.4u         
M_C_F_C49_M3         C_F_C49_ND- C_F_C49_ND- N116990 N116990 CMOSP  
+ L=.2u  
+ W=.6u         
M_C_F_C43_M4         C_F_C43_ND+ C_F_C43_ND- N116990 N116990 CMOSP  
+ L=.2u  
+ W=.6u         
M_C_F_C43_M5         C_F_C43_NDBIAS N117027 0 0 CMOSN  
+ L=.2u  
+ W=.6u         
M_C_F_C43_M6         Q43 C_F_C43_ND+ N116990 N116990 CMOSP  
+ L=.2u  
+ W=.8u         
M_C_F_C43_M7         Q43 N117027 0 0 CMOSN  
+ L=.2u  
+ W=.4u         
M_C_F_C43_M1         C_F_C43_ND- N117007 C_F_C43_NDBIAS 0 CMOSN  
+ L=.2u  
+ W=.4u         
M_C_F_C43_M2         C_F_C43_ND+ C_N117488 C_F_C43_NDBIAS 0 CMOSN  
+ L=.2u  
+ W=.4u         
M_C_F_C43_M3         C_F_C43_ND- C_F_C43_ND- N116990 N116990 CMOSP  
+ L=.2u  
+ W=.6u         
M_C_F_C37_M4         C_F_C37_ND+ C_F_C37_ND- N116990 N116990 CMOSP  
+ L=.2u  
+ W=.6u         
M_C_F_C37_M5         C_F_C37_NDBIAS N117027 0 0 CMOSN  
+ L=.2u  
+ W=.6u         
M_C_F_C37_M6         Q37 C_F_C37_ND+ N116990 N116990 CMOSP  
+ L=.2u  
+ W=.8u         
M_C_F_C37_M7         Q37 N117027 0 0 CMOSN  
+ L=.2u  
+ W=.4u         
M_C_F_C37_M1         C_F_C37_ND- N117007 C_F_C37_NDBIAS 0 CMOSN  
+ L=.2u  
+ W=.4u         
M_C_F_C37_M2         C_F_C37_ND+ C_N117510 C_F_C37_NDBIAS 0 CMOSN  
+ L=.2u  
+ W=.4u         
M_C_F_C37_M3         C_F_C37_ND- C_F_C37_ND- N116990 N116990 CMOSP  
+ L=.2u  
+ W=.6u         
M_C_F_C27_M4         C_F_C27_ND+ C_F_C27_ND- N116990 N116990 CMOSP  
+ L=.2u  
+ W=.6u         
M_C_F_C27_M5         C_F_C27_NDBIAS N117027 0 0 CMOSN  
+ L=.2u  
+ W=.6u         
M_C_F_C27_M6         Q27 C_F_C27_ND+ N116990 N116990 CMOSP  
+ L=.2u  
+ W=.8u         
M_C_F_C27_M7         Q27 N117027 0 0 CMOSN  
+ L=.2u  
+ W=.4u         
M_C_F_C27_M1         C_F_C27_ND- N117007 C_F_C27_NDBIAS 0 CMOSN  
+ L=.2u  
+ W=.4u         
M_C_F_C27_M2         C_F_C27_ND+ C_N117538 C_F_C27_NDBIAS 0 CMOSN  
+ L=.2u  
+ W=.4u         
M_C_F_C27_M3         C_F_C27_ND- C_F_C27_ND- N116990 N116990 CMOSP  
+ L=.2u  
+ W=.6u         
M_C_F_R3_NAND6_M5         C_F_R3_N62152 C_F_R3_Y N116990 N116990 CMOSP  
+ L=.18u  
+ W=.2u         
M_C_F_R3_NAND6_M6         C_F_R3_N62152 C_F_R3_Y C_F_R3_NAND6_ND2 0 CMOSN  
+ L=.18u  
+ W=.18u         
M_C_F_R3_NAND6_M2         C_F_R3_NAND6_ND2 C_F_D-3SB 0 0 CMOSN  
+ L=.18u  
+ W=.18u         
M_C_F_R3_NAND6_M4         C_F_R3_N62152 C_F_D-3SB N116990 N116990 CMOSP  
+ L=.18u  
+ W=.2u         
M_C_F_R3_NAND1_M2         C_F_R3_NAND1_ND2 N116976 C_F_R3_NAND1_ND3 0 CMOSN  
+ L=.18u  
+ W=.18u         
M_C_F_R3_NAND1_M3         C_F_R3_Y C_F_R3_X N116990 N116990 CMOSP  
+ L=.18u  
+ W=.2u         
M_C_F_R3_NAND1_M6         C_F_R3_NAND1_ND3 C_F_R3_N62152 0 0 CMOSN  
+ L=.18u  
+ W=.18u         
M_C_F_R3_NAND1_M4         C_F_R3_Y N116976 N116990 N116990 CMOSP  
+ L=.18u  
+ W=.2u         
M_C_F_R3_NAND1_M1         C_F_R3_Y C_F_R3_X C_F_R3_NAND1_ND2 0 CMOSN  
+ L=.18u  
+ W=.18u         
M_C_F_R3_NAND1_M5         C_F_R3_Y C_F_R3_N62152 N116990 N116990 CMOSP  
+ L=.18u  
+ W=.2u         
M_C_F_R3_NAND2_M5         C_F_R3_N62128 C_F_R3_N62152 N116990 N116990 CMOSP  
+ L=.18u  
+ W=.2u         
M_C_F_R3_NAND2_M6         C_F_R3_N62128 C_F_R3_N62152 C_F_R3_NAND2_ND2 0 CMOSN 
+  
+ L=.18u  
+ W=.18u         
M_C_F_R3_NAND2_M2         C_F_R3_NAND2_ND2 C_F_R3_X 0 0 CMOSN  
+ L=.18u  
+ W=.18u         
M_C_F_R3_NAND2_M4         C_F_R3_N62128 C_F_R3_X N116990 N116990 CMOSP  
+ L=.18u  
+ W=.2u         
M_C_F_R3_NAND3_M5         C_F_R3_X C_F_R3_N62128 N116990 N116990 CMOSP  
+ L=.18u  
+ W=.2u         
M_C_F_R3_NAND3_M6         C_F_R3_X C_F_R3_N62128 C_F_R3_NAND3_ND2 0 CMOSN  
+ L=.18u  
+ W=.18u         
M_C_F_R3_NAND3_M2         C_F_R3_NAND3_ND2 N116976 0 0 CMOSN  
+ L=.18u  
+ W=.18u         
M_C_F_R3_NAND3_M4         C_F_R3_X N116976 N116990 N116990 CMOSP  
+ L=.18u  
+ W=.2u         
M_C_F_R3_NAND4_M5         3SB C_F_R3_X N116990 N116990 CMOSP  
+ L=.18u  
+ W=.2u         
M_C_F_R3_NAND4_M6         3SB C_F_R3_X C_F_R3_NAND4_ND2 0 CMOSN  
+ L=.18u  
+ W=.18u         
M_C_F_R3_NAND4_M2         C_F_R3_NAND4_ND2 N-3SB 0 0 CMOSN  
+ L=.18u  
+ W=.18u         
M_C_F_R3_NAND4_M4         3SB N-3SB N116990 N116990 CMOSP  
+ L=.18u  
+ W=.2u         
M_C_F_R3_NAND5_M5         N-3SB 3SB N116990 N116990 CMOSP  
+ L=.18u  
+ W=.2u         
M_C_F_R3_NAND5_M6         N-3SB 3SB C_F_R3_NAND5_ND2 0 CMOSN  
+ L=.18u  
+ W=.18u         
M_C_F_R3_NAND5_M2         C_F_R3_NAND5_ND2 C_F_R3_Y 0 0 CMOSN  
+ L=.18u  
+ W=.18u         
M_C_F_R3_NAND5_M4         N-3SB C_F_R3_Y N116990 N116990 CMOSP  
+ L=.18u  
+ W=.2u         
M_C_F_C32_M4         C_F_C32_ND+ C_F_C32_ND- N116990 N116990 CMOSP  
+ L=.2u  
+ W=.6u         
M_C_F_C32_M5         C_F_C32_NDBIAS N117027 0 0 CMOSN  
+ L=.2u  
+ W=.6u         
M_C_F_C32_M6         C_F_D-MSB C_F_C32_ND+ N116990 N116990 CMOSP  
+ L=.2u  
+ W=.8u         
M_C_F_C32_M7         C_F_D-MSB N117027 0 0 CMOSN  
+ L=.2u  
+ W=.4u         
M_C_F_C32_M1         C_F_C32_ND- N117007 C_F_C32_NDBIAS 0 CMOSN  
+ L=.2u  
+ W=.4u         
M_C_F_C32_M2         C_F_C32_ND+ C_N117520 C_F_C32_NDBIAS 0 CMOSN  
+ L=.2u  
+ W=.4u         
M_C_F_C32_M3         C_F_C32_ND- C_F_C32_ND- N116990 N116990 CMOSP  
+ L=.2u  
+ W=.6u         
M_C_F_C58_M4         C_F_C58_ND+ C_F_C58_ND- N116990 N116990 CMOSP  
+ L=.2u  
+ W=.6u         
M_C_F_C58_M5         C_F_C58_NDBIAS N117027 0 0 CMOSN  
+ L=.2u  
+ W=.6u         
M_C_F_C58_M6         Q58 C_F_C58_ND+ N116990 N116990 CMOSP  
+ L=.2u  
+ W=.8u         
M_C_F_C58_M7         Q58 N117027 0 0 CMOSN  
+ L=.2u  
+ W=.4u         
M_C_F_C58_M1         C_F_C58_ND- N117007 C_F_C58_NDBIAS 0 CMOSN  
+ L=.2u  
+ W=.4u         
M_C_F_C58_M2         C_F_C58_ND+ C_N119891 C_F_C58_NDBIAS 0 CMOSN  
+ L=.2u  
+ W=.4u         
M_C_F_C58_M3         C_F_C58_ND- C_F_C58_ND- N116990 N116990 CMOSP  
+ L=.2u  
+ W=.6u         
M_C_F_C17_M4         C_F_C17_ND+ C_F_C17_ND- N116990 N116990 CMOSP  
+ L=.2u  
+ W=.6u         
M_C_F_C17_M5         C_F_C17_NDBIAS N117027 0 0 CMOSN  
+ L=.2u  
+ W=.6u         
M_C_F_C17_M6         Q17 C_F_C17_ND+ N116990 N116990 CMOSP  
+ L=.2u  
+ W=.8u         
M_C_F_C17_M7         Q17 N117027 0 0 CMOSN  
+ L=.2u  
+ W=.4u         
M_C_F_C17_M1         C_F_C17_ND- N117007 C_F_C17_NDBIAS 0 CMOSN  
+ L=.2u  
+ W=.4u         
M_C_F_C17_M2         C_F_C17_ND+ C_N117550 C_F_C17_NDBIAS 0 CMOSN  
+ L=.2u  
+ W=.4u         
M_C_F_C17_M3         C_F_C17_ND- C_F_C17_ND- N116990 N116990 CMOSP  
+ L=.2u  
+ W=.6u         
M_C_F_C42_M4         C_F_C42_ND+ C_F_C42_ND- N116990 N116990 CMOSP  
+ L=.2u  
+ W=.6u         
M_C_F_C42_M5         C_F_C42_NDBIAS N117027 0 0 CMOSN  
+ L=.2u  
+ W=.6u         
M_C_F_C42_M6         Q42 C_F_C42_ND+ N116990 N116990 CMOSP  
+ L=.2u  
+ W=.8u         
M_C_F_C42_M7         Q42 N117027 0 0 CMOSN  
+ L=.2u  
+ W=.4u         
M_C_F_C42_M1         C_F_C42_ND- N117007 C_F_C42_NDBIAS 0 CMOSN  
+ L=.2u  
+ W=.4u         
M_C_F_C42_M2         C_F_C42_ND+ C_N117486 C_F_C42_NDBIAS 0 CMOSN  
+ L=.2u  
+ W=.4u         
M_C_F_C42_M3         C_F_C42_ND- C_F_C42_ND- N116990 N116990 CMOSP  
+ L=.2u  
+ W=.6u         
M_C_F_C50_M4         C_F_C50_ND+ C_F_C50_ND- N116990 N116990 CMOSP  
+ L=.2u  
+ W=.6u         
M_C_F_C50_M5         C_F_C50_NDBIAS N117027 0 0 CMOSN  
+ L=.2u  
+ W=.6u         
M_C_F_C50_M6         Q50 C_F_C50_ND+ N116990 N116990 CMOSP  
+ L=.2u  
+ W=.8u         
M_C_F_C50_M7         Q50 N117027 0 0 CMOSN  
+ L=.2u  
+ W=.4u         
M_C_F_C50_M1         C_F_C50_ND- N117007 C_F_C50_NDBIAS 0 CMOSN  
+ L=.2u  
+ W=.4u         
M_C_F_C50_M2         C_F_C50_ND+ C_N119903 C_F_C50_NDBIAS 0 CMOSN  
+ L=.2u  
+ W=.4u         
M_C_F_C50_M3         C_F_C50_ND- C_F_C50_ND- N116990 N116990 CMOSP  
+ L=.2u  
+ W=.6u         
M_C_F_C55_M4         C_F_C55_ND+ C_F_C55_ND- N116990 N116990 CMOSP  
+ L=.2u  
+ W=.6u         
M_C_F_C55_M5         C_F_C55_NDBIAS N117027 0 0 CMOSN  
+ L=.2u  
+ W=.6u         
M_C_F_C55_M6         Q55 C_F_C55_ND+ N116990 N116990 CMOSP  
+ L=.2u  
+ W=.8u         
M_C_F_C55_M7         Q55 N117027 0 0 CMOSN  
+ L=.2u  
+ W=.4u         
M_C_F_C55_M1         C_F_C55_ND- N117007 C_F_C55_NDBIAS 0 CMOSN  
+ L=.2u  
+ W=.4u         
M_C_F_C55_M2         C_F_C55_ND+ C_N119897 C_F_C55_NDBIAS 0 CMOSN  
+ L=.2u  
+ W=.4u         
M_C_F_C55_M3         C_F_C55_ND- C_F_C55_ND- N116990 N116990 CMOSP  
+ L=.2u  
+ W=.6u         
M_C_F_C3_M4         C_F_C3_ND+ C_F_C3_ND- N116990 N116990 CMOSP  
+ L=.2u  
+ W=.6u         
M_C_F_C3_M5         C_F_C3_NDBIAS N117027 0 0 CMOSN  
+ L=.2u  
+ W=.6u         
M_C_F_C3_M6         Q3 C_F_C3_ND+ N116990 N116990 CMOSP  
+ L=.2u  
+ W=.8u         
M_C_F_C3_M7         Q3 N117027 0 0 CMOSN  
+ L=.2u  
+ W=.4u         
M_C_F_C3_M1         C_F_C3_ND- N117007 C_F_C3_NDBIAS 0 CMOSN  
+ L=.2u  
+ W=.4u         
M_C_F_C3_M2         C_F_C3_ND+ C_N117568 C_F_C3_NDBIAS 0 CMOSN  
+ L=.2u  
+ W=.4u         
M_C_F_C3_M3         C_F_C3_ND- C_F_C3_ND- N116990 N116990 CMOSP  
+ L=.2u  
+ W=.6u         
M_C_F_C28_M4         C_F_C28_ND+ C_F_C28_ND- N116990 N116990 CMOSP  
+ L=.2u  
+ W=.6u         
M_C_F_C28_M5         C_F_C28_NDBIAS N117027 0 0 CMOSN  
+ L=.2u  
+ W=.6u         
M_C_F_C28_M6         Q28 C_F_C28_ND+ N116990 N116990 CMOSP  
+ L=.2u  
+ W=.8u         
M_C_F_C28_M7         Q28 N117027 0 0 CMOSN  
+ L=.2u  
+ W=.4u         
M_C_F_C28_M1         C_F_C28_ND- N117007 C_F_C28_NDBIAS 0 CMOSN  
+ L=.2u  
+ W=.4u         
M_C_F_C28_M2         C_F_C28_ND+ C_N117540 C_F_C28_NDBIAS 0 CMOSN  
+ L=.2u  
+ W=.4u         
M_C_F_C28_M3         C_F_C28_ND- C_F_C28_ND- N116990 N116990 CMOSP  
+ L=.2u  
+ W=.6u         
M_C_F_C63_M4         C_F_C63_ND+ C_F_C63_ND- N116990 N116990 CMOSP  
+ L=.2u  
+ W=.6u         
M_C_F_C63_M5         C_F_C63_NDBIAS N117027 0 0 CMOSN  
+ L=.2u  
+ W=.6u         
M_C_F_C63_M6         Q63 C_F_C63_ND+ N116990 N116990 CMOSP  
+ L=.2u  
+ W=.8u         
M_C_F_C63_M7         Q63 N117027 0 0 CMOSN  
+ L=.2u  
+ W=.4u         
M_C_F_C63_M1         C_F_C63_ND- N117007 C_F_C63_NDBIAS 0 CMOSN  
+ L=.2u  
+ W=.4u         
M_C_F_C63_M2         C_F_C63_ND+ C_N119881 C_F_C63_NDBIAS 0 CMOSN  
+ L=.2u  
+ W=.4u         
M_C_F_C63_M3         C_F_C63_ND- C_F_C63_ND- N116990 N116990 CMOSP  
+ L=.2u  
+ W=.6u         
M_C_F_C41_M4         C_F_C41_ND+ C_F_C41_ND- N116990 N116990 CMOSP  
+ L=.2u  
+ W=.6u         
M_C_F_C41_M5         C_F_C41_NDBIAS N117027 0 0 CMOSN  
+ L=.2u  
+ W=.6u         
M_C_F_C41_M6         Q41 C_F_C41_ND+ N116990 N116990 CMOSP  
+ L=.2u  
+ W=.8u         
M_C_F_C41_M7         Q41 N117027 0 0 CMOSN  
+ L=.2u  
+ W=.4u         
M_C_F_C41_M1         C_F_C41_ND- N117007 C_F_C41_NDBIAS 0 CMOSN  
+ L=.2u  
+ W=.4u         
M_C_F_C41_M2         C_F_C41_ND+ C_N117502 C_F_C41_NDBIAS 0 CMOSN  
+ L=.2u  
+ W=.4u         
M_C_F_C41_M3         C_F_C41_ND- C_F_C41_ND- N116990 N116990 CMOSP  
+ L=.2u  
+ W=.6u         
M_C_F_C33_M4         C_F_C33_ND+ C_F_C33_ND- N116990 N116990 CMOSP  
+ L=.2u  
+ W=.6u         
M_C_F_C33_M5         C_F_C33_NDBIAS N117027 0 0 CMOSN  
+ L=.2u  
+ W=.6u         
M_C_F_C33_M6         Q33 C_F_C33_ND+ N116990 N116990 CMOSP  
+ L=.2u  
+ W=.8u         
M_C_F_C33_M7         Q33 N117027 0 0 CMOSN  
+ L=.2u  
+ W=.4u         
M_C_F_C33_M1         C_F_C33_ND- N117007 C_F_C33_NDBIAS 0 CMOSN  
+ L=.2u  
+ W=.4u         
M_C_F_C33_M2         C_F_C33_ND+ C_N117518 C_F_C33_NDBIAS 0 CMOSN  
+ L=.2u  
+ W=.4u         
M_C_F_C33_M3         C_F_C33_ND- C_F_C33_ND- N116990 N116990 CMOSP  
+ L=.2u  
+ W=.6u         
M_C_F_C51_M4         C_F_C51_ND+ C_F_C51_ND- N116990 N116990 CMOSP  
+ L=.2u  
+ W=.6u         
M_C_F_C51_M5         C_F_C51_NDBIAS N117027 0 0 CMOSN  
+ L=.2u  
+ W=.6u         
M_C_F_C51_M6         Q51 C_F_C51_ND+ N116990 N116990 CMOSP  
+ L=.2u  
+ W=.8u         
M_C_F_C51_M7         Q51 N117027 0 0 CMOSN  
+ L=.2u  
+ W=.4u         
M_C_F_C51_M1         C_F_C51_ND- N117007 C_F_C51_NDBIAS 0 CMOSN  
+ L=.2u  
+ W=.4u         
M_C_F_C51_M2         C_F_C51_ND+ C_N119905 C_F_C51_NDBIAS 0 CMOSN  
+ L=.2u  
+ W=.4u         
M_C_F_C51_M3         C_F_C51_ND- C_F_C51_ND- N116990 N116990 CMOSP  
+ L=.2u  
+ W=.6u         
M_C_F_C36_M4         C_F_C36_ND+ C_F_C36_ND- N116990 N116990 CMOSP  
+ L=.2u  
+ W=.6u         
M_C_F_C36_M5         C_F_C36_NDBIAS N117027 0 0 CMOSN  
+ L=.2u  
+ W=.6u         
M_C_F_C36_M6         Q36 C_F_C36_ND+ N116990 N116990 CMOSP  
+ L=.2u  
+ W=.8u         
M_C_F_C36_M7         Q36 N117027 0 0 CMOSN  
+ L=.2u  
+ W=.4u         
M_C_F_C36_M1         C_F_C36_ND- N117007 C_F_C36_NDBIAS 0 CMOSN  
+ L=.2u  
+ W=.4u         
M_C_F_C36_M2         C_F_C36_ND+ C_N117512 C_F_C36_NDBIAS 0 CMOSN  
+ L=.2u  
+ W=.4u         
M_C_F_C36_M3         C_F_C36_ND- C_F_C36_ND- N116990 N116990 CMOSP  
+ L=.2u  
+ W=.6u         
M_C_F_C61_M4         C_F_C61_ND+ C_F_C61_ND- N116990 N116990 CMOSP  
+ L=.2u  
+ W=.6u         
M_C_F_C61_M5         C_F_C61_NDBIAS N117027 0 0 CMOSN  
+ L=.2u  
+ W=.6u         
M_C_F_C61_M6         Q61 C_F_C61_ND+ N116990 N116990 CMOSP  
+ L=.2u  
+ W=.8u         
M_C_F_C61_M7         Q61 N117027 0 0 CMOSN  
+ L=.2u  
+ W=.4u         
M_C_F_C61_M1         C_F_C61_ND- N117007 C_F_C61_NDBIAS 0 CMOSN  
+ L=.2u  
+ W=.4u         
M_C_F_C61_M2         C_F_C61_ND+ C_N119885 C_F_C61_NDBIAS 0 CMOSN  
+ L=.2u  
+ W=.4u         
M_C_F_C61_M3         C_F_C61_ND- C_F_C61_ND- N116990 N116990 CMOSP  
+ L=.2u  
+ W=.6u         
M_C_F_R4_NAND6_M5         C_F_R4_N62152 C_F_R4_Y N116990 N116990 CMOSP  
+ L=.18u  
+ W=.2u         
M_C_F_R4_NAND6_M6         C_F_R4_N62152 C_F_R4_Y C_F_R4_NAND6_ND2 0 CMOSN  
+ L=.18u  
+ W=.18u         
M_C_F_R4_NAND6_M2         C_F_R4_NAND6_ND2 C_F_D-4SB 0 0 CMOSN  
+ L=.18u  
+ W=.18u         
M_C_F_R4_NAND6_M4         C_F_R4_N62152 C_F_D-4SB N116990 N116990 CMOSP  
+ L=.18u  
+ W=.2u         
M_C_F_R4_NAND1_M2         C_F_R4_NAND1_ND2 N116976 C_F_R4_NAND1_ND3 0 CMOSN  
+ L=.18u  
+ W=.18u         
M_C_F_R4_NAND1_M3         C_F_R4_Y C_F_R4_X N116990 N116990 CMOSP  
+ L=.18u  
+ W=.2u         
M_C_F_R4_NAND1_M6         C_F_R4_NAND1_ND3 C_F_R4_N62152 0 0 CMOSN  
+ L=.18u  
+ W=.18u         
M_C_F_R4_NAND1_M4         C_F_R4_Y N116976 N116990 N116990 CMOSP  
+ L=.18u  
+ W=.2u         
M_C_F_R4_NAND1_M1         C_F_R4_Y C_F_R4_X C_F_R4_NAND1_ND2 0 CMOSN  
+ L=.18u  
+ W=.18u         
M_C_F_R4_NAND1_M5         C_F_R4_Y C_F_R4_N62152 N116990 N116990 CMOSP  
+ L=.18u  
+ W=.2u         
M_C_F_R4_NAND2_M5         C_F_R4_N62128 C_F_R4_N62152 N116990 N116990 CMOSP  
+ L=.18u  
+ W=.2u         
M_C_F_R4_NAND2_M6         C_F_R4_N62128 C_F_R4_N62152 C_F_R4_NAND2_ND2 0 CMOSN 
+  
+ L=.18u  
+ W=.18u         
M_C_F_R4_NAND2_M2         C_F_R4_NAND2_ND2 C_F_R4_X 0 0 CMOSN  
+ L=.18u  
+ W=.18u         
M_C_F_R4_NAND2_M4         C_F_R4_N62128 C_F_R4_X N116990 N116990 CMOSP  
+ L=.18u  
+ W=.2u         
M_C_F_R4_NAND3_M5         C_F_R4_X C_F_R4_N62128 N116990 N116990 CMOSP  
+ L=.18u  
+ W=.2u         
M_C_F_R4_NAND3_M6         C_F_R4_X C_F_R4_N62128 C_F_R4_NAND3_ND2 0 CMOSN  
+ L=.18u  
+ W=.18u         
M_C_F_R4_NAND3_M2         C_F_R4_NAND3_ND2 N116976 0 0 CMOSN  
+ L=.18u  
+ W=.18u         
M_C_F_R4_NAND3_M4         C_F_R4_X N116976 N116990 N116990 CMOSP  
+ L=.18u  
+ W=.2u         
M_C_F_R4_NAND4_M5         4SB C_F_R4_X N116990 N116990 CMOSP  
+ L=.18u  
+ W=.2u         
M_C_F_R4_NAND4_M6         4SB C_F_R4_X C_F_R4_NAND4_ND2 0 CMOSN  
+ L=.18u  
+ W=.18u         
M_C_F_R4_NAND4_M2         C_F_R4_NAND4_ND2 N-4SB 0 0 CMOSN  
+ L=.18u  
+ W=.18u         
M_C_F_R4_NAND4_M4         4SB N-4SB N116990 N116990 CMOSP  
+ L=.18u  
+ W=.2u         
M_C_F_R4_NAND5_M5         N-4SB 4SB N116990 N116990 CMOSP  
+ L=.18u  
+ W=.2u         
M_C_F_R4_NAND5_M6         N-4SB 4SB C_F_R4_NAND5_ND2 0 CMOSN  
+ L=.18u  
+ W=.18u         
M_C_F_R4_NAND5_M2         C_F_R4_NAND5_ND2 C_F_R4_Y 0 0 CMOSN  
+ L=.18u  
+ W=.18u         
M_C_F_R4_NAND5_M4         N-4SB C_F_R4_Y N116990 N116990 CMOSP  
+ L=.18u  
+ W=.2u         
M_C_F_C29_M4         C_F_C29_ND+ C_F_C29_ND- N116990 N116990 CMOSP  
+ L=.2u  
+ W=.6u         
M_C_F_C29_M5         C_F_C29_NDBIAS N117027 0 0 CMOSN  
+ L=.2u  
+ W=.6u         
M_C_F_C29_M6         Q29 C_F_C29_ND+ N116990 N116990 CMOSP  
+ L=.2u  
+ W=.8u         
M_C_F_C29_M7         Q29 N117027 0 0 CMOSN  
+ L=.2u  
+ W=.4u         
M_C_F_C29_M1         C_F_C29_ND- N117007 C_F_C29_NDBIAS 0 CMOSN  
+ L=.2u  
+ W=.4u         
M_C_F_C29_M2         C_F_C29_ND+ C_N117542 C_F_C29_NDBIAS 0 CMOSN  
+ L=.2u  
+ W=.4u         
M_C_F_C29_M3         C_F_C29_ND- C_F_C29_ND- N116990 N116990 CMOSP  
+ L=.2u  
+ W=.6u         
M_C_F_C40_M4         C_F_C40_ND+ C_F_C40_ND- N116990 N116990 CMOSP  
+ L=.2u  
+ W=.6u         
M_C_F_C40_M5         C_F_C40_NDBIAS N117027 0 0 CMOSN  
+ L=.2u  
+ W=.6u         
M_C_F_C40_M6         Q40 C_F_C40_ND+ N116990 N116990 CMOSP  
+ L=.2u  
+ W=.8u         
M_C_F_C40_M7         Q40 N117027 0 0 CMOSN  
+ L=.2u  
+ W=.4u         
M_C_F_C40_M1         C_F_C40_ND- N117007 C_F_C40_NDBIAS 0 CMOSN  
+ L=.2u  
+ W=.4u         
M_C_F_C40_M2         C_F_C40_ND+ C_N117504 C_F_C40_NDBIAS 0 CMOSN  
+ L=.2u  
+ W=.4u         
M_C_F_C40_M3         C_F_C40_ND- C_F_C40_ND- N116990 N116990 CMOSP  
+ L=.2u  
+ W=.6u         
M_C_F_R1_NAND6_M5         C_F_R1_N62152 C_F_R1_Y N116990 N116990 CMOSP  
+ L=.18u  
+ W=.2u         
M_C_F_R1_NAND6_M6         C_F_R1_N62152 C_F_R1_Y C_F_R1_NAND6_ND2 0 CMOSN  
+ L=.18u  
+ W=.18u         
M_C_F_R1_NAND6_M2         C_F_R1_NAND6_ND2 C_F_D-LSB 0 0 CMOSN  
+ L=.18u  
+ W=.18u         
M_C_F_R1_NAND6_M4         C_F_R1_N62152 C_F_D-LSB N116990 N116990 CMOSP  
+ L=.18u  
+ W=.2u         
M_C_F_R1_NAND1_M2         C_F_R1_NAND1_ND2 N116976 C_F_R1_NAND1_ND3 0 CMOSN  
+ L=.18u  
+ W=.18u         
M_C_F_R1_NAND1_M3         C_F_R1_Y C_F_R1_X N116990 N116990 CMOSP  
+ L=.18u  
+ W=.2u         
M_C_F_R1_NAND1_M6         C_F_R1_NAND1_ND3 C_F_R1_N62152 0 0 CMOSN  
+ L=.18u  
+ W=.18u         
M_C_F_R1_NAND1_M4         C_F_R1_Y N116976 N116990 N116990 CMOSP  
+ L=.18u  
+ W=.2u         
M_C_F_R1_NAND1_M1         C_F_R1_Y C_F_R1_X C_F_R1_NAND1_ND2 0 CMOSN  
+ L=.18u  
+ W=.18u         
M_C_F_R1_NAND1_M5         C_F_R1_Y C_F_R1_N62152 N116990 N116990 CMOSP  
+ L=.18u  
+ W=.2u         
M_C_F_R1_NAND2_M5         C_F_R1_N62128 C_F_R1_N62152 N116990 N116990 CMOSP  
+ L=.18u  
+ W=.2u         
M_C_F_R1_NAND2_M6         C_F_R1_N62128 C_F_R1_N62152 C_F_R1_NAND2_ND2 0 CMOSN 
+  
+ L=.18u  
+ W=.18u         
M_C_F_R1_NAND2_M2         C_F_R1_NAND2_ND2 C_F_R1_X 0 0 CMOSN  
+ L=.18u  
+ W=.18u         
M_C_F_R1_NAND2_M4         C_F_R1_N62128 C_F_R1_X N116990 N116990 CMOSP  
+ L=.18u  
+ W=.2u         
M_C_F_R1_NAND3_M5         C_F_R1_X C_F_R1_N62128 N116990 N116990 CMOSP  
+ L=.18u  
+ W=.2u         
M_C_F_R1_NAND3_M6         C_F_R1_X C_F_R1_N62128 C_F_R1_NAND3_ND2 0 CMOSN  
+ L=.18u  
+ W=.18u         
M_C_F_R1_NAND3_M2         C_F_R1_NAND3_ND2 N116976 0 0 CMOSN  
+ L=.18u  
+ W=.18u         
M_C_F_R1_NAND3_M4         C_F_R1_X N116976 N116990 N116990 CMOSP  
+ L=.18u  
+ W=.2u         
M_C_F_R1_NAND4_M5         LSB C_F_R1_X N116990 N116990 CMOSP  
+ L=.18u  
+ W=.2u         
M_C_F_R1_NAND4_M6         LSB C_F_R1_X C_F_R1_NAND4_ND2 0 CMOSN  
+ L=.18u  
+ W=.18u         
M_C_F_R1_NAND4_M2         C_F_R1_NAND4_ND2 N-LSB 0 0 CMOSN  
+ L=.18u  
+ W=.18u         
M_C_F_R1_NAND4_M4         LSB N-LSB N116990 N116990 CMOSP  
+ L=.18u  
+ W=.2u         
M_C_F_R1_NAND5_M5         N-LSB LSB N116990 N116990 CMOSP  
+ L=.18u  
+ W=.2u         
M_C_F_R1_NAND5_M6         N-LSB LSB C_F_R1_NAND5_ND2 0 CMOSN  
+ L=.18u  
+ W=.18u         
M_C_F_R1_NAND5_M2         C_F_R1_NAND5_ND2 C_F_R1_Y 0 0 CMOSN  
+ L=.18u  
+ W=.18u         
M_C_F_R1_NAND5_M4         N-LSB C_F_R1_Y N116990 N116990 CMOSP  
+ L=.18u  
+ W=.2u         
M_C_F_C56_M4         C_F_C56_ND+ C_F_C56_ND- N116990 N116990 CMOSP  
+ L=.2u  
+ W=.6u         
M_C_F_C56_M5         C_F_C56_NDBIAS N117027 0 0 CMOSN  
+ L=.2u  
+ W=.6u         
M_C_F_C56_M6         Q56 C_F_C56_ND+ N116990 N116990 CMOSP  
+ L=.2u  
+ W=.8u         
M_C_F_C56_M7         Q56 N117027 0 0 CMOSN  
+ L=.2u  
+ W=.4u         
M_C_F_C56_M1         C_F_C56_ND- N117007 C_F_C56_NDBIAS 0 CMOSN  
+ L=.2u  
+ W=.4u         
M_C_F_C56_M2         C_F_C56_ND+ C_N119895 C_F_C56_NDBIAS 0 CMOSN  
+ L=.2u  
+ W=.4u         
M_C_F_C56_M3         C_F_C56_ND- C_F_C56_ND- N116990 N116990 CMOSP  
+ L=.2u  
+ W=.6u         
M_C_F_C52_M4         C_F_C52_ND+ C_F_C52_ND- N116990 N116990 CMOSP  
+ L=.2u  
+ W=.6u         
M_C_F_C52_M5         C_F_C52_NDBIAS N117027 0 0 CMOSN  
+ L=.2u  
+ W=.6u         
M_C_F_C52_M6         Q52 C_F_C52_ND+ N116990 N116990 CMOSP  
+ L=.2u  
+ W=.8u         
M_C_F_C52_M7         Q52 N117027 0 0 CMOSN  
+ L=.2u  
+ W=.4u         
M_C_F_C52_M1         C_F_C52_ND- N117007 C_F_C52_NDBIAS 0 CMOSN  
+ L=.2u  
+ W=.4u         
M_C_F_C52_M2         C_F_C52_ND+ C_N119907 C_F_C52_NDBIAS 0 CMOSN  
+ L=.2u  
+ W=.4u         
M_C_F_C52_M3         C_F_C52_ND- C_F_C52_ND- N116990 N116990 CMOSP  
+ L=.2u  
+ W=.6u         
M_C_F_C59_M4         C_F_C59_ND+ C_F_C59_ND- N116990 N116990 CMOSP  
+ L=.2u  
+ W=.6u         
M_C_F_C59_M5         C_F_C59_NDBIAS N117027 0 0 CMOSN  
+ L=.2u  
+ W=.6u         
M_C_F_C59_M6         Q59 C_F_C59_ND+ N116990 N116990 CMOSP  
+ L=.2u  
+ W=.8u         
M_C_F_C59_M7         Q59 N117027 0 0 CMOSN  
+ L=.2u  
+ W=.4u         
M_C_F_C59_M1         C_F_C59_ND- N117007 C_F_C59_NDBIAS 0 CMOSN  
+ L=.2u  
+ W=.4u         
M_C_F_C59_M2         C_F_C59_ND+ C_N119889 C_F_C59_NDBIAS 0 CMOSN  
+ L=.2u  
+ W=.4u         
M_C_F_C59_M3         C_F_C59_ND- C_F_C59_ND- N116990 N116990 CMOSP  
+ L=.2u  
+ W=.6u         
M_C_F_C13_M4         C_F_C13_ND+ C_F_C13_ND- N116990 N116990 CMOSP  
+ L=.2u  
+ W=.6u         
M_C_F_C13_M5         C_F_C13_NDBIAS N117027 0 0 CMOSN  
+ L=.2u  
+ W=.6u         
M_C_F_C13_M6         Q13 C_F_C13_ND+ N116990 N116990 CMOSP  
+ L=.2u  
+ W=.8u         
M_C_F_C13_M7         Q13 N117027 0 0 CMOSN  
+ L=.2u  
+ W=.4u         
M_C_F_C13_M1         C_F_C13_ND- N117007 C_F_C13_NDBIAS 0 CMOSN  
+ L=.2u  
+ W=.4u         
M_C_F_C13_M2         C_F_C13_ND+ C_N117558 C_F_C13_NDBIAS 0 CMOSN  
+ L=.2u  
+ W=.4u         
M_C_F_C13_M3         C_F_C13_ND- C_F_C13_ND- N116990 N116990 CMOSP  
+ L=.2u  
+ W=.6u         
M_C_F_C14_M4         C_F_C14_ND+ C_F_C14_ND- N116990 N116990 CMOSP  
+ L=.2u  
+ W=.6u         
M_C_F_C14_M5         C_F_C14_NDBIAS N117027 0 0 CMOSN  
+ L=.2u  
+ W=.6u         
M_C_F_C14_M6         Q14 C_F_C14_ND+ N116990 N116990 CMOSP  
+ L=.2u  
+ W=.8u         
M_C_F_C14_M7         Q14 N117027 0 0 CMOSN  
+ L=.2u  
+ W=.4u         
M_C_F_C14_M1         C_F_C14_ND- N117007 C_F_C14_NDBIAS 0 CMOSN  
+ L=.2u  
+ W=.4u         
M_C_F_C14_M2         C_F_C14_ND+ C_N117556 C_F_C14_NDBIAS 0 CMOSN  
+ L=.2u  
+ W=.4u         
M_C_F_C14_M3         C_F_C14_ND- C_F_C14_ND- N116990 N116990 CMOSP  
+ L=.2u  
+ W=.6u         
M_C_F_C12_M4         C_F_C12_ND+ C_F_C12_ND- N116990 N116990 CMOSP  
+ L=.2u  
+ W=.6u         
M_C_F_C12_M5         C_F_C12_NDBIAS N117027 0 0 CMOSN  
+ L=.2u  
+ W=.6u         
M_C_F_C12_M6         Q12 C_F_C12_ND+ N116990 N116990 CMOSP  
+ L=.2u  
+ W=.8u         
M_C_F_C12_M7         Q12 N117027 0 0 CMOSN  
+ L=.2u  
+ W=.4u         
M_C_F_C12_M1         C_F_C12_ND- N117007 C_F_C12_NDBIAS 0 CMOSN  
+ L=.2u  
+ W=.4u         
M_C_F_C12_M2         C_F_C12_ND+ C_N117560 C_F_C12_NDBIAS 0 CMOSN  
+ L=.2u  
+ W=.4u         
M_C_F_C12_M3         C_F_C12_ND- C_F_C12_ND- N116990 N116990 CMOSP  
+ L=.2u  
+ W=.6u         
M_C_F_C30_M4         C_F_C30_ND+ C_F_C30_ND- N116990 N116990 CMOSP  
+ L=.2u  
+ W=.6u         
M_C_F_C30_M5         C_F_C30_NDBIAS N117027 0 0 CMOSN  
+ L=.2u  
+ W=.6u         
M_C_F_C30_M6         Q30 C_F_C30_ND+ N116990 N116990 CMOSP  
+ L=.2u  
+ W=.8u         
M_C_F_C30_M7         Q30 N117027 0 0 CMOSN  
+ L=.2u  
+ W=.4u         
M_C_F_C30_M1         C_F_C30_ND- N117007 C_F_C30_NDBIAS 0 CMOSN  
+ L=.2u  
+ W=.4u         
M_C_F_C30_M2         C_F_C30_ND+ C_N117544 C_F_C30_NDBIAS 0 CMOSN  
+ L=.2u  
+ W=.4u         
M_C_F_C30_M3         C_F_C30_ND- C_F_C30_ND- N116990 N116990 CMOSP  
+ L=.2u  
+ W=.6u         
M_C_F_C35_M4         C_F_C35_ND+ C_F_C35_ND- N116990 N116990 CMOSP  
+ L=.2u  
+ W=.6u         
M_C_F_C35_M5         C_F_C35_NDBIAS N117027 0 0 CMOSN  
+ L=.2u  
+ W=.6u         
M_C_F_C35_M6         Q35 C_F_C35_ND+ N116990 N116990 CMOSP  
+ L=.2u  
+ W=.8u         
M_C_F_C35_M7         Q35 N117027 0 0 CMOSN  
+ L=.2u  
+ W=.4u         
M_C_F_C35_M1         C_F_C35_ND- N117007 C_F_C35_NDBIAS 0 CMOSN  
+ L=.2u  
+ W=.4u         
M_C_F_C35_M2         C_F_C35_ND+ C_N117514 C_F_C35_NDBIAS 0 CMOSN  
+ L=.2u  
+ W=.4u         
M_C_F_C35_M3         C_F_C35_ND- C_F_C35_ND- N116990 N116990 CMOSP  
+ L=.2u  
+ W=.6u         
M_C_F_C39_M4         C_F_C39_ND+ C_F_C39_ND- N116990 N116990 CMOSP  
+ L=.2u  
+ W=.6u         
M_C_F_C39_M5         C_F_C39_NDBIAS N117027 0 0 CMOSN  
+ L=.2u  
+ W=.6u         
M_C_F_C39_M6         Q39 C_F_C39_ND+ N116990 N116990 CMOSP  
+ L=.2u  
+ W=.8u         
M_C_F_C39_M7         Q39 N117027 0 0 CMOSN  
+ L=.2u  
+ W=.4u         
M_C_F_C39_M1         C_F_C39_ND- N117007 C_F_C39_NDBIAS 0 CMOSN  
+ L=.2u  
+ W=.4u         
M_C_F_C39_M2         C_F_C39_ND+ C_N117506 C_F_C39_NDBIAS 0 CMOSN  
+ L=.2u  
+ W=.4u         
M_C_F_C39_M3         C_F_C39_ND- C_F_C39_ND- N116990 N116990 CMOSP  
+ L=.2u  
+ W=.6u         
M_C_F_C15_M4         C_F_C15_ND+ C_F_C15_ND- N116990 N116990 CMOSP  
+ L=.2u  
+ W=.6u         
M_C_F_C15_M5         C_F_C15_NDBIAS N117027 0 0 CMOSN  
+ L=.2u  
+ W=.6u         
M_C_F_C15_M6         Q15 C_F_C15_ND+ N116990 N116990 CMOSP  
+ L=.2u  
+ W=.8u         
M_C_F_C15_M7         Q15 N117027 0 0 CMOSN  
+ L=.2u  
+ W=.4u         
M_C_F_C15_M1         C_F_C15_ND- N117007 C_F_C15_NDBIAS 0 CMOSN  
+ L=.2u  
+ W=.4u         
M_C_F_C15_M2         C_F_C15_ND+ C_N117554 C_F_C15_NDBIAS 0 CMOSN  
+ L=.2u  
+ W=.4u         
M_C_F_C15_M3         C_F_C15_ND- C_F_C15_ND- N116990 N116990 CMOSP  
+ L=.2u  
+ W=.6u         
M_C_F_C11_M4         C_F_C11_ND+ C_F_C11_ND- N116990 N116990 CMOSP  
+ L=.2u  
+ W=.6u         
M_C_F_C11_M5         C_F_C11_NDBIAS N117027 0 0 CMOSN  
+ L=.2u  
+ W=.6u         
M_C_F_C11_M6         Q11 C_F_C11_ND+ N116990 N116990 CMOSP  
+ L=.2u  
+ W=.8u         
M_C_F_C11_M7         Q11 N117027 0 0 CMOSN  
+ L=.2u  
+ W=.4u         
M_C_F_C11_M1         C_F_C11_ND- N117007 C_F_C11_NDBIAS 0 CMOSN  
+ L=.2u  
+ W=.4u         
M_C_F_C11_M2         C_F_C11_ND+ C_N117562 C_F_C11_NDBIAS 0 CMOSN  
+ L=.2u  
+ W=.4u         
M_C_F_C11_M3         C_F_C11_ND- C_F_C11_ND- N116990 N116990 CMOSP  
+ L=.2u  
+ W=.6u         
M_C_F_C6_M4         C_F_C6_ND+ C_F_C6_ND- N116990 N116990 CMOSP  
+ L=.2u  
+ W=.6u         
M_C_F_C6_M5         C_F_C6_NDBIAS N117027 0 0 CMOSN  
+ L=.2u  
+ W=.6u         
M_C_F_C6_M6         Q6 C_F_C6_ND+ N116990 N116990 CMOSP  
+ L=.2u  
+ W=.8u         
M_C_F_C6_M7         Q6 N117027 0 0 CMOSN  
+ L=.2u  
+ W=.4u         
M_C_F_C6_M1         C_F_C6_ND- N117007 C_F_C6_NDBIAS 0 CMOSN  
+ L=.2u  
+ W=.4u         
M_C_F_C6_M2         C_F_C6_ND+ C_N117572 C_F_C6_NDBIAS 0 CMOSN  
+ L=.2u  
+ W=.4u         
M_C_F_C6_M3         C_F_C6_ND- C_F_C6_ND- N116990 N116990 CMOSP  
+ L=.2u  
+ W=.6u         
M_C_F_C16_M4         C_F_C16_ND+ C_F_C16_ND- N116990 N116990 CMOSP  
+ L=.2u  
+ W=.6u         
M_C_F_C16_M5         C_F_C16_NDBIAS N117027 0 0 CMOSN  
+ L=.2u  
+ W=.6u         
M_C_F_C16_M6         Q16 C_F_C16_ND+ N116990 N116990 CMOSP  
+ L=.2u  
+ W=.8u         
M_C_F_C16_M7         Q16 N117027 0 0 CMOSN  
+ L=.2u  
+ W=.4u         
M_C_F_C16_M1         C_F_C16_ND- N117007 C_F_C16_NDBIAS 0 CMOSN  
+ L=.2u  
+ W=.4u         
M_C_F_C16_M2         C_F_C16_ND+ C_N117552 C_F_C16_NDBIAS 0 CMOSN  
+ L=.2u  
+ W=.4u         
M_C_F_C16_M3         C_F_C16_ND- C_F_C16_ND- N116990 N116990 CMOSP  
+ L=.2u  
+ W=.6u         
M_C_F_C10_M4         C_F_C10_ND+ C_F_C10_ND- N116990 N116990 CMOSP  
+ L=.2u  
+ W=.6u         
M_C_F_C10_M5         C_F_C10_NDBIAS N117027 0 0 CMOSN  
+ L=.2u  
+ W=.6u         
M_C_F_C10_M6         Q10 C_F_C10_ND+ N116990 N116990 CMOSP  
+ L=.2u  
+ W=.8u         
M_C_F_C10_M7         Q10 N117027 0 0 CMOSN  
+ L=.2u  
+ W=.4u         
M_C_F_C10_M1         C_F_C10_ND- N117007 C_F_C10_NDBIAS 0 CMOSN  
+ L=.2u  
+ W=.4u         
M_C_F_C10_M2         C_F_C10_ND+ C_N117580 C_F_C10_NDBIAS 0 CMOSN  
+ L=.2u  
+ W=.4u         
M_C_F_C10_M3         C_F_C10_ND- C_F_C10_ND- N116990 N116990 CMOSP  
+ L=.2u  
+ W=.6u         
M_C_F_C53_M4         C_F_C53_ND+ C_F_C53_ND- N116990 N116990 CMOSP  
+ L=.2u  
+ W=.6u         
M_C_F_C53_M5         C_F_C53_NDBIAS N117027 0 0 CMOSN  
+ L=.2u  
+ W=.6u         
M_C_F_C53_M6         Q53 C_F_C53_ND+ N116990 N116990 CMOSP  
+ L=.2u  
+ W=.8u         
M_C_F_C53_M7         Q53 N117027 0 0 CMOSN  
+ L=.2u  
+ W=.4u         
M_C_F_C53_M1         C_F_C53_ND- N117007 C_F_C53_NDBIAS 0 CMOSN  
+ L=.2u  
+ W=.4u         
M_C_F_C53_M2         C_F_C53_ND+ C_N119901 C_F_C53_NDBIAS 0 CMOSN  
+ L=.2u  
+ W=.4u         
M_C_F_C53_M3         C_F_C53_ND- C_F_C53_ND- N116990 N116990 CMOSP  
+ L=.2u  
+ W=.6u         
M_C_F_R5_NAND6_M5         C_F_R5_N62152 C_F_R5_Y N116990 N116990 CMOSP  
+ L=.18u  
+ W=.2u         
M_C_F_R5_NAND6_M6         C_F_R5_N62152 C_F_R5_Y C_F_R5_NAND6_ND2 0 CMOSN  
+ L=.18u  
+ W=.18u         
M_C_F_R5_NAND6_M2         C_F_R5_NAND6_ND2 C_F_D-5SB 0 0 CMOSN  
+ L=.18u  
+ W=.18u         
M_C_F_R5_NAND6_M4         C_F_R5_N62152 C_F_D-5SB N116990 N116990 CMOSP  
+ L=.18u  
+ W=.2u         
M_C_F_R5_NAND1_M2         C_F_R5_NAND1_ND2 N116976 C_F_R5_NAND1_ND3 0 CMOSN  
+ L=.18u  
+ W=.18u         
M_C_F_R5_NAND1_M3         C_F_R5_Y C_F_R5_X N116990 N116990 CMOSP  
+ L=.18u  
+ W=.2u         
M_C_F_R5_NAND1_M6         C_F_R5_NAND1_ND3 C_F_R5_N62152 0 0 CMOSN  
+ L=.18u  
+ W=.18u         
M_C_F_R5_NAND1_M4         C_F_R5_Y N116976 N116990 N116990 CMOSP  
+ L=.18u  
+ W=.2u         
M_C_F_R5_NAND1_M1         C_F_R5_Y C_F_R5_X C_F_R5_NAND1_ND2 0 CMOSN  
+ L=.18u  
+ W=.18u         
M_C_F_R5_NAND1_M5         C_F_R5_Y C_F_R5_N62152 N116990 N116990 CMOSP  
+ L=.18u  
+ W=.2u         
M_C_F_R5_NAND2_M5         C_F_R5_N62128 C_F_R5_N62152 N116990 N116990 CMOSP  
+ L=.18u  
+ W=.2u         
M_C_F_R5_NAND2_M6         C_F_R5_N62128 C_F_R5_N62152 C_F_R5_NAND2_ND2 0 CMOSN 
+  
+ L=.18u  
+ W=.18u         
M_C_F_R5_NAND2_M2         C_F_R5_NAND2_ND2 C_F_R5_X 0 0 CMOSN  
+ L=.18u  
+ W=.18u         
M_C_F_R5_NAND2_M4         C_F_R5_N62128 C_F_R5_X N116990 N116990 CMOSP  
+ L=.18u  
+ W=.2u         
M_C_F_R5_NAND3_M5         C_F_R5_X C_F_R5_N62128 N116990 N116990 CMOSP  
+ L=.18u  
+ W=.2u         
M_C_F_R5_NAND3_M6         C_F_R5_X C_F_R5_N62128 C_F_R5_NAND3_ND2 0 CMOSN  
+ L=.18u  
+ W=.18u         
M_C_F_R5_NAND3_M2         C_F_R5_NAND3_ND2 N116976 0 0 CMOSN  
+ L=.18u  
+ W=.18u         
M_C_F_R5_NAND3_M4         C_F_R5_X N116976 N116990 N116990 CMOSP  
+ L=.18u  
+ W=.2u         
M_C_F_R5_NAND4_M5         5SB C_F_R5_X N116990 N116990 CMOSP  
+ L=.18u  
+ W=.2u         
M_C_F_R5_NAND4_M6         5SB C_F_R5_X C_F_R5_NAND4_ND2 0 CMOSN  
+ L=.18u  
+ W=.18u         
M_C_F_R5_NAND4_M2         C_F_R5_NAND4_ND2 N-5SB 0 0 CMOSN  
+ L=.18u  
+ W=.18u         
M_C_F_R5_NAND4_M4         5SB N-5SB N116990 N116990 CMOSP  
+ L=.18u  
+ W=.2u         
M_C_F_R5_NAND5_M5         N-5SB 5SB N116990 N116990 CMOSP  
+ L=.18u  
+ W=.2u         
M_C_F_R5_NAND5_M6         N-5SB 5SB C_F_R5_NAND5_ND2 0 CMOSN  
+ L=.18u  
+ W=.18u         
M_C_F_R5_NAND5_M2         C_F_R5_NAND5_ND2 C_F_R5_Y 0 0 CMOSN  
+ L=.18u  
+ W=.18u         
M_C_F_R5_NAND5_M4         N-5SB C_F_R5_Y N116990 N116990 CMOSP  
+ L=.18u  
+ W=.2u         
M_C_F_C22_M4         C_F_C22_ND+ C_F_C22_ND- N116990 N116990 CMOSP  
+ L=.2u  
+ W=.6u         
M_C_F_C22_M5         C_F_C22_NDBIAS N117027 0 0 CMOSN  
+ L=.2u  
+ W=.6u         
M_C_F_C22_M6         Q22 C_F_C22_ND+ N116990 N116990 CMOSP  
+ L=.2u  
+ W=.8u         
M_C_F_C22_M7         Q22 N117027 0 0 CMOSN  
+ L=.2u  
+ W=.4u         
M_C_F_C22_M1         C_F_C22_ND- N117007 C_F_C22_NDBIAS 0 CMOSN  
+ L=.2u  
+ W=.4u         
M_C_F_C22_M2         C_F_C22_ND+ C_N117528 C_F_C22_NDBIAS 0 CMOSN  
+ L=.2u  
+ W=.4u         
M_C_F_C22_M3         C_F_C22_ND- C_F_C22_ND- N116990 N116990 CMOSP  
+ L=.2u  
+ W=.6u         
M_C_F_C23_M4         C_F_C23_ND+ C_F_C23_ND- N116990 N116990 CMOSP  
+ L=.2u  
+ W=.6u         
M_C_F_C23_M5         C_F_C23_NDBIAS N117027 0 0 CMOSN  
+ L=.2u  
+ W=.6u         
M_C_F_C23_M6         Q23 C_F_C23_ND+ N116990 N116990 CMOSP  
+ L=.2u  
+ W=.8u         
M_C_F_C23_M7         Q23 N117027 0 0 CMOSN  
+ L=.2u  
+ W=.4u         
M_C_F_C23_M1         C_F_C23_ND- N117007 C_F_C23_NDBIAS 0 CMOSN  
+ L=.2u  
+ W=.4u         
M_C_F_C23_M2         C_F_C23_ND+ C_N117530 C_F_C23_NDBIAS 0 CMOSN  
+ L=.2u  
+ W=.4u         
M_C_F_C23_M3         C_F_C23_ND- C_F_C23_ND- N116990 N116990 CMOSP  
+ L=.2u  
+ W=.6u         
M_C_F_C21_M4         C_F_C21_ND+ C_F_C21_ND- N116990 N116990 CMOSP  
+ L=.2u  
+ W=.6u         
M_C_F_C21_M5         C_F_C21_NDBIAS N117027 0 0 CMOSN  
+ L=.2u  
+ W=.6u         
M_C_F_C21_M6         Q21 C_F_C21_ND+ N116990 N116990 CMOSP  
+ L=.2u  
+ W=.8u         
M_C_F_C21_M7         Q21 N117027 0 0 CMOSN  
+ L=.2u  
+ W=.4u         
M_C_F_C21_M1         C_F_C21_ND- N117007 C_F_C21_NDBIAS 0 CMOSN  
+ L=.2u  
+ W=.4u         
M_C_F_C21_M2         C_F_C21_ND+ C_N117526 C_F_C21_NDBIAS 0 CMOSN  
+ L=.2u  
+ W=.4u         
M_C_F_C21_M3         C_F_C21_ND- C_F_C21_ND- N116990 N116990 CMOSP  
+ L=.2u  
+ W=.6u         
M_C_F_C1_M4         C_F_C1_ND+ C_F_C1_ND- N116990 N116990 CMOSP  
+ L=.2u  
+ W=.6u         
M_C_F_C1_M5         C_F_C1_NDBIAS N117027 0 0 CMOSN  
+ L=.2u  
+ W=.6u         
M_C_F_C1_M6         Q1 C_F_C1_ND+ N116990 N116990 CMOSP  
+ L=.2u  
+ W=.8u         
M_C_F_C1_M7         Q1 N117027 0 0 CMOSN  
+ L=.2u  
+ W=.4u         
M_C_F_C1_M1         C_F_C1_ND- N117007 C_F_C1_NDBIAS 0 CMOSN  
+ L=.2u  
+ W=.4u         
M_C_F_C1_M2         C_F_C1_ND+ C_N117582 C_F_C1_NDBIAS 0 CMOSN  
+ L=.2u  
+ W=.4u         
M_C_F_C1_M3         C_F_C1_ND- C_F_C1_ND- N116990 N116990 CMOSP  
+ L=.2u  
+ W=.6u         
M_C_F_C9_M4         C_F_C9_ND+ C_F_C9_ND- N116990 N116990 CMOSP  
+ L=.2u  
+ W=.6u         
M_C_F_C9_M5         C_F_C9_NDBIAS N117027 0 0 CMOSN  
+ L=.2u  
+ W=.6u         
M_C_F_C9_M6         Q9 C_F_C9_ND+ N116990 N116990 CMOSP  
+ L=.2u  
+ W=.8u         
M_C_F_C9_M7         Q9 N117027 0 0 CMOSN  
+ L=.2u  
+ W=.4u         
M_C_F_C9_M1         C_F_C9_ND- N117007 C_F_C9_NDBIAS 0 CMOSN  
+ L=.2u  
+ W=.4u         
M_C_F_C9_M2         C_F_C9_ND+ C_N117578 C_F_C9_NDBIAS 0 CMOSN  
+ L=.2u  
+ W=.4u         
M_C_F_C9_M3         C_F_C9_ND- C_F_C9_ND- N116990 N116990 CMOSP  
+ L=.2u  
+ W=.6u         
M_C_F_D_U31_M5         C_F_D_ND2SB1 Q2 N116990 N116990 CMOSP  
+ L=.18u  
+ W=.2u         
M_C_F_D_U31_M6         C_F_D_ND2SB1 Q2 0 0 CMOSN  
+ L=.18u  
+ W=.18u         
M_C_F_D_U16_M5         C_F_D_N565094 Q16 N116990 N116990 CMOSP  
+ L=.18u  
+ W=.2u         
M_C_F_D_U16_M6         C_F_D_N565094 Q16 0 0 CMOSN  
+ L=.18u  
+ W=.18u         
M_C_F_D_U91_M5         C_F_D_NDLSB16 C_F_D_N578578 N116990 N116990 CMOSP  
+ L=.18u  
+ W=.2u         
M_C_F_D_U91_M6         C_F_D_NDLSB16 C_F_D_N578578 C_F_D_U91_ND2 0 CMOSN  
+ L=.18u  
+ W=.18u         
M_C_F_D_U91_M2         C_F_D_U91_ND2 Q31 0 0 CMOSN  
+ L=.18u  
+ W=.18u         
M_C_F_D_U91_M4         C_F_D_NDLSB16 Q31 N116990 N116990 CMOSP  
+ L=.18u  
+ W=.2u         
M_C_F_D_U65_M5         C_F_D_N568485 C_F_D_N941987 N116990 N116990 CMOSP  
+ L=.18u  
+ W=.2u         
M_C_F_D_U65_M6         C_F_D_N568485 C_F_D_N941987 0 0 CMOSN  
+ L=.18u  
+ W=.18u         
M_C_F_D_U2_M5         C_F_D_N259339 C_F_D-MSB N116990 N116990 CMOSP  
+ L=.18u  
+ W=.2u         
M_C_F_D_U2_M6         C_F_D_N259339 C_F_D-MSB 0 0 CMOSN  
+ L=.18u  
+ W=.18u         
M_C_F_D_U96_M5         C_F_D_NDLSB11 C_F_D_N578514 N116990 N116990 CMOSP  
+ L=.18u  
+ W=.2u         
M_C_F_D_U96_M6         C_F_D_NDLSB11 C_F_D_N578514 C_F_D_U96_ND2 0 CMOSN  
+ L=.18u  
+ W=.18u         
M_C_F_D_U96_M2         C_F_D_U96_ND2 Q21 0 0 CMOSN  
+ L=.18u  
+ W=.18u         
M_C_F_D_U96_M4         C_F_D_NDLSB11 Q21 N116990 N116990 CMOSP  
+ L=.18u  
+ W=.2u         
M_C_F_D_U109_M5         C_F_D_N573020 Q48 N116990 N116990 CMOSP  
+ L=.18u  
+ W=.2u         
M_C_F_D_U109_M6         C_F_D_N573020 Q48 0 0 CMOSN  
+ L=.18u  
+ W=.18u         
M_C_F_D_U57_M5         C_F_D_ND2SB12 C_F_D_N567821 N116990 N116990 CMOSP  
+ L=.18u  
+ W=.2u         
M_C_F_D_U57_M6         C_F_D_ND2SB12 C_F_D_N567821 C_F_D_U57_ND2 0 CMOSN  
+ L=.18u  
+ W=.18u         
M_C_F_D_U57_M2         C_F_D_U57_ND2 Q46 0 0 CMOSN  
+ L=.18u  
+ W=.18u         
M_C_F_D_U57_M4         C_F_D_ND2SB12 Q46 N116990 N116990 CMOSP  
+ L=.18u  
+ W=.2u         
M_C_F_D_U28_M5         C_F_D_ND3SB6 C_F_D_N565120 N116990 N116990 CMOSP  
+ L=.18u  
+ W=.2u         
M_C_F_D_U28_M6         C_F_D_ND3SB6 C_F_D_N565120 C_F_D_U28_ND2 0 CMOSN  
+ L=.18u  
+ W=.18u         
M_C_F_D_U28_M2         C_F_D_U28_ND2 Q44 0 0 CMOSN  
+ L=.18u  
+ W=.18u         
M_C_F_D_U28_M4         C_F_D_ND3SB6 Q44 N116990 N116990 CMOSP  
+ L=.18u  
+ W=.2u         
M_C_F_D_U139_M5         C_F_D_NDX4LSB X4 N116990 N116990 CMOSP  
+ L=.18u  
+ W=.2u         
M_C_F_D_U139_M6         C_F_D_NDX4LSB X4 0 0 CMOSN  
+ L=.18u  
+ W=.18u         
M_C_F_D_U74_M5         C_F_D_N578674 Q12 N116990 N116990 CMOSP  
+ L=.18u  
+ W=.2u         
M_C_F_D_U74_M6         C_F_D_N578674 Q12 0 0 CMOSN  
+ L=.18u  
+ W=.18u         
M_C_F_D_U43_M5         C_F_D_N567821 Q44 N116990 N116990 CMOSP  
+ L=.18u  
+ W=.2u         
M_C_F_D_U43_M6         C_F_D_N567821 Q44 0 0 CMOSN  
+ L=.18u  
+ W=.18u         
M_C_F_D_U80_M5         C_F_D_N578524 Q22 N116990 N116990 CMOSP  
+ L=.18u  
+ W=.2u         
M_C_F_D_U80_M6         C_F_D_N578524 Q22 0 0 CMOSN  
+ L=.18u  
+ W=.18u         
M_C_F_D_U14_M5         C_F_D_ND3SB1 Q4 N116990 N116990 CMOSP  
+ L=.18u  
+ W=.2u         
M_C_F_D_U14_M6         C_F_D_ND3SB1 Q4 0 0 CMOSN  
+ L=.18u  
+ W=.18u         
M_C_F_D_U136_M5         C_F_D_NDX1LSB X1 N116990 N116990 CMOSP  
+ L=.18u  
+ W=.2u         
M_C_F_D_U136_M6         C_F_D_NDX1LSB X1 0 0 CMOSN  
+ L=.18u  
+ W=.18u         
M_C_F_D_U116_M5         C_F_D_N573096 Q62 N116990 N116990 CMOSP  
+ L=.18u  
+ W=.2u         
M_C_F_D_U116_M6         C_F_D_N573096 Q62 0 0 CMOSN  
+ L=.18u  
+ W=.18u         
M_C_F_D_U124_M5         C_F_D_NDLSB24 C_F_D_N572160 N116990 N116990 CMOSP  
+ L=.18u  
+ W=.2u         
M_C_F_D_U124_M6         C_F_D_NDLSB24 C_F_D_N572160 C_F_D_U124_ND2 0 CMOSN  
+ L=.18u  
+ W=.18u         
M_C_F_D_U124_M2         C_F_D_U124_ND2 Q47 0 0 CMOSN  
+ L=.18u  
+ W=.18u         
M_C_F_D_U124_M4         C_F_D_NDLSB24 Q47 N116990 N116990 CMOSP  
+ L=.18u  
+ W=.2u         
M_C_F_D_U69_M5         C_F_D_N578608 Q2 N116990 N116990 CMOSP  
+ L=.18u  
+ W=.2u         
M_C_F_D_U69_M6         C_F_D_N578608 Q2 0 0 CMOSN  
+ L=.18u  
+ W=.18u         
M_C_F_D_U86_M5         C_F_D_NDLSB4 C_F_D_N578636 N116990 N116990 CMOSP  
+ L=.18u  
+ W=.2u         
M_C_F_D_U86_M6         C_F_D_NDLSB4 C_F_D_N578636 C_F_D_U86_ND2 0 CMOSN  
+ L=.18u  
+ W=.18u         
M_C_F_D_U86_M2         C_F_D_U86_ND2 Q7 0 0 CMOSN  
+ L=.18u  
+ W=.18u         
M_C_F_D_U86_M4         C_F_D_NDLSB4 Q7 N116990 N116990 CMOSP  
+ L=.18u  
+ W=.2u         
M_C_F_D_U26_M5         C_F_D_ND3SB4 C_F_D_N565104 N116990 N116990 CMOSP  
+ L=.18u  
+ W=.2u         
M_C_F_D_U26_M6         C_F_D_ND3SB4 C_F_D_N565104 C_F_D_U26_ND2 0 CMOSN  
+ L=.18u  
+ W=.18u         
M_C_F_D_U26_M2         C_F_D_U26_ND2 Q28 0 0 CMOSN  
+ L=.18u  
+ W=.18u         
M_C_F_D_U26_M4         C_F_D_ND3SB4 Q28 N116990 N116990 CMOSP  
+ L=.18u  
+ W=.2u         
M_C_F_D_U103_M5         C_F_D_N572104 Q36 N116990 N116990 CMOSP  
+ L=.18u  
+ W=.2u         
M_C_F_D_U103_M6         C_F_D_N572104 Q36 0 0 CMOSN  
+ L=.18u  
+ W=.18u         
M_C_F_D_U37_M5         C_F_D_N568555 Q24 N116990 N116990 CMOSP  
+ L=.18u  
+ W=.2u         
M_C_F_D_U37_M6         C_F_D_N568555 Q24 0 0 CMOSN  
+ L=.18u  
+ W=.18u         
M_C_F_D_U61_M5         C_F_D_ND2SB16 C_F_D_N567861 N116990 N116990 CMOSP  
+ L=.18u  
+ W=.2u         
M_C_F_D_U61_M6         C_F_D_ND2SB16 C_F_D_N567861 C_F_D_U61_ND2 0 CMOSN  
+ L=.18u  
+ W=.18u         
M_C_F_D_U61_M2         C_F_D_U61_ND2 Q62 0 0 CMOSN  
+ L=.18u  
+ W=.18u         
M_C_F_D_U61_M4         C_F_D_ND2SB16 Q62 N116990 N116990 CMOSP  
+ L=.18u  
+ W=.2u         
M_C_F_D_U119_M5         C_F_D_NDLSB19 C_F_D_N572104 N116990 N116990 CMOSP  
+ L=.18u  
+ W=.2u         
M_C_F_D_U119_M6         C_F_D_NDLSB19 C_F_D_N572104 C_F_D_U119_ND2 0 CMOSN  
+ L=.18u  
+ W=.18u         
M_C_F_D_U119_M2         C_F_D_U119_ND2 Q37 0 0 CMOSN  
+ L=.18u  
+ W=.18u         
M_C_F_D_U119_M4         C_F_D_NDLSB19 Q37 N116990 N116990 CMOSP  
+ L=.18u  
+ W=.2u         
M_C_F_D_U48_M5         C_F_D_ND2SB3 C_F_D_N568511 N116990 N116990 CMOSP  
+ L=.18u  
+ W=.2u         
M_C_F_D_U48_M6         C_F_D_ND2SB3 C_F_D_N568511 C_F_D_U48_ND2 0 CMOSN  
+ L=.18u  
+ W=.18u         
M_C_F_D_U48_M2         C_F_D_U48_ND2 Q10 0 0 CMOSN  
+ L=.18u  
+ W=.18u         
M_C_F_D_U48_M4         C_F_D_ND2SB3 Q10 N116990 N116990 CMOSP  
+ L=.18u  
+ W=.2u         
M_C_F_D_U64_M16         C_F_D_N941987 C_F_D_ND2SB12 N116990 N116990 CMOSP  
+ L=.18u  
+ W=.2u         
M_C_F_D_U64_M5         C_F_D_N941987 C_F_D_ND2SB16 N116990 N116990 CMOSP  
+ L=.18u  
+ W=.2u         
M_C_F_D_U64_M11         C_F_D_N941987 C_F_D_ND2SB9 N116990 N116990 CMOSP  
+ L=.18u  
+ W=.2u         
M_C_F_D_U64_M9         C_F_D_N941987 C_F_D_ND2SB14 N116990 N116990 CMOSP  
+ L=.18u  
+ W=.2u         
M_C_F_D_U64_M1         C_F_D_N941987 C_F_D_ND2SB9 C_F_D_U64_ND2 0 CMOSN  
+ L=.18u  
+ W=.18u         
M_C_F_D_U64_M6         C_F_D_U64_ND3 C_F_D_ND2SB11 C_F_D_U64_ND4 0 CMOSN  
+ L=.18u  
+ W=.18u         
M_C_F_D_U64_M7         C_F_D_U64_ND4 C_F_D_ND2SB12 C_F_D_U64_ND5 0 CMOSN  
+ L=.18u  
+ W=.18u         
M_C_F_D_U64_M12         C_F_D_N941987 C_F_D_ND2SB13 N116990 N116990 CMOSP  
+ L=.18u  
+ W=.2u         
M_C_F_D_U64_M2         C_F_D_U64_ND2 C_F_D_ND2SB10 C_F_D_U64_ND3 0 CMOSN  
+ L=.18u  
+ W=.18u         
M_C_F_D_U64_M13         C_F_D_U64_ND6 C_F_D_ND2SB14 C_F_D_U64_ND7 0 CMOSN  
+ L=.18u  
+ W=.18u         
M_C_F_D_U64_M10         C_F_D_U64_ND5 C_F_D_ND2SB13 C_F_D_U64_ND6 0 CMOSN  
+ L=.18u  
+ W=.18u         
M_C_F_D_U64_M3         C_F_D_N941987 C_F_D_ND2SB10 N116990 N116990 CMOSP  
+ L=.18u  
+ W=.2u         
M_C_F_D_U64_M14         C_F_D_U64_ND7 C_F_D_ND2SB15 C_F_D_U64_ND8 0 CMOSN  
+ L=.18u  
+ W=.18u         
M_C_F_D_U64_M8         C_F_D_N941987 C_F_D_ND2SB15 N116990 N116990 CMOSP  
+ L=.18u  
+ W=.2u         
M_C_F_D_U64_M4         C_F_D_N941987 C_F_D_ND2SB11 N116990 N116990 CMOSP  
+ L=.18u  
+ W=.2u         
M_C_F_D_U64_M15         C_F_D_U64_ND8 C_F_D_ND2SB16 0 0 CMOSN  
+ L=.18u  
+ W=.18u         
M_C_F_D_U52_M5         C_F_D_ND2SB7 C_F_D_N568555 N116990 N116990 CMOSP  
+ L=.18u  
+ W=.2u         
M_C_F_D_U52_M6         C_F_D_ND2SB7 C_F_D_N568555 C_F_D_U52_ND2 0 CMOSN  
+ L=.18u  
+ W=.18u         
M_C_F_D_U52_M2         C_F_D_U52_ND2 Q26 0 0 CMOSN  
+ L=.18u  
+ W=.18u         
M_C_F_D_U52_M4         C_F_D_ND2SB7 Q26 N116990 N116990 CMOSP  
+ L=.18u  
+ W=.2u         
M_C_F_D_U108_M5         C_F_D_N572160 Q46 N116990 N116990 CMOSP  
+ L=.18u  
+ W=.2u         
M_C_F_D_U108_M6         C_F_D_N572160 Q46 0 0 CMOSN  
+ L=.18u  
+ W=.18u         
M_C_F_D_U35_M5         C_F_D_N568535 Q16 N116990 N116990 CMOSP  
+ L=.18u  
+ W=.2u         
M_C_F_D_U35_M6         C_F_D_N568535 Q16 0 0 CMOSN  
+ L=.18u  
+ W=.18u         
M_C_F_D_U24_M5         C_F_D_ND3SB2 C_F_D_N565082 N116990 N116990 CMOSP  
+ L=.18u  
+ W=.2u         
M_C_F_D_U24_M6         C_F_D_ND3SB2 C_F_D_N565082 C_F_D_U24_ND2 0 CMOSN  
+ L=.18u  
+ W=.18u         
M_C_F_D_U24_M2         C_F_D_U24_ND2 Q12 0 0 CMOSN  
+ L=.18u  
+ W=.18u         
M_C_F_D_U24_M4         C_F_D_ND3SB2 Q12 N116990 N116990 CMOSP  
+ L=.18u  
+ W=.2u         
M_C_F_D_U135_M16         X4 C_F_D_NDLSB28 N116990 N116990 CMOSP  
+ L=.18u  
+ W=.2u         
M_C_F_D_U135_M5         X4 C_F_D_NDLSB32 N116990 N116990 CMOSP  
+ L=.18u  
+ W=.2u         
M_C_F_D_U135_M11         X4 C_F_D_NDLSB25 N116990 N116990 CMOSP  
+ L=.18u  
+ W=.2u         
M_C_F_D_U135_M9         X4 C_F_D_NDLSB30 N116990 N116990 CMOSP  
+ L=.18u  
+ W=.2u         
M_C_F_D_U135_M1         X4 C_F_D_NDLSB25 C_F_D_U135_ND2 0 CMOSN  
+ L=.18u  
+ W=.18u         
M_C_F_D_U135_M6         C_F_D_U135_ND3 C_F_D_NDLSB27 C_F_D_U135_ND4 0 CMOSN  
+ L=.18u  
+ W=.18u         
M_C_F_D_U135_M7         C_F_D_U135_ND4 C_F_D_NDLSB28 C_F_D_U135_ND5 0 CMOSN  
+ L=.18u  
+ W=.18u         
M_C_F_D_U135_M12         X4 C_F_D_NDLSB29 N116990 N116990 CMOSP  
+ L=.18u  
+ W=.2u         
M_C_F_D_U135_M2         C_F_D_U135_ND2 C_F_D_NDLSB26 C_F_D_U135_ND3 0 CMOSN  
+ L=.18u  
+ W=.18u         
M_C_F_D_U135_M13         C_F_D_U135_ND6 C_F_D_NDLSB30 C_F_D_U135_ND7 0 CMOSN  
+ L=.18u  
+ W=.18u         
M_C_F_D_U135_M10         C_F_D_U135_ND5 C_F_D_NDLSB29 C_F_D_U135_ND6 0 CMOSN  
+ L=.18u  
+ W=.18u         
M_C_F_D_U135_M3         X4 C_F_D_NDLSB26 N116990 N116990 CMOSP  
+ L=.18u  
+ W=.2u         
M_C_F_D_U135_M14         C_F_D_U135_ND7 C_F_D_NDLSB31 C_F_D_U135_ND8 0 CMOSN  
+ L=.18u  
+ W=.18u         
M_C_F_D_U135_M8         X4 C_F_D_NDLSB31 N116990 N116990 CMOSP  
+ L=.18u  
+ W=.2u         
M_C_F_D_U135_M4         X4 C_F_D_NDLSB27 N116990 N116990 CMOSP  
+ L=.18u  
+ W=.2u         
M_C_F_D_U135_M15         C_F_D_U135_ND8 C_F_D_NDLSB32 0 0 CMOSN  
+ L=.18u  
+ W=.18u         
M_C_F_D_U115_M5         C_F_D_N573086 Q60 N116990 N116990 CMOSP  
+ L=.18u  
+ W=.2u         
M_C_F_D_U115_M6         C_F_D_N573086 Q60 0 0 CMOSN  
+ L=.18u  
+ W=.18u         
M_C_F_D_U90_M5         C_F_D_NDLSB8 C_F_D_N578686 N116990 N116990 CMOSP  
+ L=.18u  
+ W=.2u         
M_C_F_D_U90_M6         C_F_D_NDLSB8 C_F_D_N578686 C_F_D_U90_ND2 0 CMOSN  
+ L=.18u  
+ W=.18u         
M_C_F_D_U90_M2         C_F_D_U90_ND2 Q15 0 0 CMOSN  
+ L=.18u  
+ W=.18u         
M_C_F_D_U90_M4         C_F_D_NDLSB8 Q15 N116990 N116990 CMOSP  
+ L=.18u  
+ W=.2u         
M_C_F_D_U95_M5         C_F_D_NDLSB12 C_F_D_N578524 N116990 N116990 CMOSP  
+ L=.18u  
+ W=.2u         
M_C_F_D_U95_M6         C_F_D_NDLSB12 C_F_D_N578524 C_F_D_U95_ND2 0 CMOSN  
+ L=.18u  
+ W=.18u         
M_C_F_D_U95_M2         C_F_D_U95_ND2 Q23 0 0 CMOSN  
+ L=.18u  
+ W=.18u         
M_C_F_D_U95_M4         C_F_D_NDLSB12 Q23 N116990 N116990 CMOSP  
+ L=.18u  
+ W=.2u         
M_C_F_D_U133_M5         C_F_D_NDLSB25 C_F_D_N573020 N116990 N116990 CMOSP  
+ L=.18u  
+ W=.2u         
M_C_F_D_U133_M6         C_F_D_NDLSB25 C_F_D_N573020 C_F_D_U133_ND2 0 CMOSN  
+ L=.18u  
+ W=.18u         
M_C_F_D_U133_M2         C_F_D_U133_ND2 Q49 0 0 CMOSN  
+ L=.18u  
+ W=.18u         
M_C_F_D_U133_M4         C_F_D_NDLSB25 Q49 N116990 N116990 CMOSP  
+ L=.18u  
+ W=.2u         
M_C_F_D_U79_M5         C_F_D_N578534 Q24 N116990 N116990 CMOSP  
+ L=.18u  
+ W=.2u         
M_C_F_D_U79_M6         C_F_D_N578534 Q24 0 0 CMOSN  
+ L=.18u  
+ W=.18u         
M_C_F_D_U42_M5         C_F_D_N567831 Q48 N116990 N116990 CMOSP  
+ L=.18u  
+ W=.2u         
M_C_F_D_U42_M6         C_F_D_N567831 Q48 0 0 CMOSN  
+ L=.18u  
+ W=.18u         
M_C_F_D_U73_M5         C_F_D_N578662 Q10 N116990 N116990 CMOSP  
+ L=.18u  
+ W=.2u         
M_C_F_D_U73_M6         C_F_D_N578662 Q10 0 0 CMOSN  
+ L=.18u  
+ W=.18u         
M_C_F_D_U9_M5         C_F_D_ND4SB3 C_F_D_N259543 N116990 N116990 CMOSP  
+ L=.18u  
+ W=.2u         
M_C_F_D_U9_M6         C_F_D_ND4SB3 C_F_D_N259543 C_F_D_U9_ND2 0 CMOSN  
+ L=.18u  
+ W=.18u         
M_C_F_D_U9_M2         C_F_D_U9_ND2 Q40 0 0 CMOSN  
+ L=.18u  
+ W=.18u         
M_C_F_D_U9_M4         C_F_D_ND4SB3 Q40 N116990 N116990 CMOSP  
+ L=.18u  
+ W=.2u         
M_C_F_D_U56_M5         C_F_D_ND2SB11 C_F_D_N567811 N116990 N116990 CMOSP  
+ L=.18u  
+ W=.2u         
M_C_F_D_U56_M6         C_F_D_ND2SB11 C_F_D_N567811 C_F_D_U56_ND2 0 CMOSN  
+ L=.18u  
+ W=.18u         
M_C_F_D_U56_M2         C_F_D_U56_ND2 Q42 0 0 CMOSN  
+ L=.18u  
+ W=.18u         
M_C_F_D_U56_M4         C_F_D_ND2SB11 Q42 N116990 N116990 CMOSP  
+ L=.18u  
+ W=.2u         
M_C_F_D_U23_M5         C_F_D-3SB C_F_D_N565340 N116990 N116990 CMOSP  
+ L=.18u  
+ W=.2u         
M_C_F_D_U23_M6         C_F_D-3SB C_F_D_N565340 0 0 CMOSN  
+ L=.18u  
+ W=.18u         
M_C_F_D_U123_M5         C_F_D_NDLSB23 C_F_D_N572144 N116990 N116990 CMOSP  
+ L=.18u  
+ W=.2u         
M_C_F_D_U123_M6         C_F_D_NDLSB23 C_F_D_N572144 C_F_D_U123_ND2 0 CMOSN  
+ L=.18u  
+ W=.18u         
M_C_F_D_U123_M2         C_F_D_U123_ND2 Q45 0 0 CMOSN  
+ L=.18u  
+ W=.18u         
M_C_F_D_U123_M4         C_F_D_NDLSB23 Q45 N116990 N116990 CMOSP  
+ L=.18u  
+ W=.2u         
M_C_F_D_U63_M16         C_F_D_N567419 C_F_D_ND2SB4 N116990 N116990 CMOSP  
+ L=.18u  
+ W=.2u         
M_C_F_D_U63_M5         C_F_D_N567419 C_F_D_ND2SB8 N116990 N116990 CMOSP  
+ L=.18u  
+ W=.2u         
M_C_F_D_U63_M11         C_F_D_N567419 C_F_D_ND2SB1 N116990 N116990 CMOSP  
+ L=.18u  
+ W=.2u         
M_C_F_D_U63_M9         C_F_D_N567419 C_F_D_ND2SB6 N116990 N116990 CMOSP  
+ L=.18u  
+ W=.2u         
M_C_F_D_U63_M1         C_F_D_N567419 C_F_D_ND2SB1 C_F_D_U63_ND2 0 CMOSN  
+ L=.18u  
+ W=.18u         
M_C_F_D_U63_M6         C_F_D_U63_ND3 C_F_D_ND2SB3 C_F_D_U63_ND4 0 CMOSN  
+ L=.18u  
+ W=.18u         
M_C_F_D_U63_M7         C_F_D_U63_ND4 C_F_D_ND2SB4 C_F_D_U63_ND5 0 CMOSN  
+ L=.18u  
+ W=.18u         
M_C_F_D_U63_M12         C_F_D_N567419 C_F_D_ND2SB5 N116990 N116990 CMOSP  
+ L=.18u  
+ W=.2u         
M_C_F_D_U63_M2         C_F_D_U63_ND2 C_F_D_ND2SB2 C_F_D_U63_ND3 0 CMOSN  
+ L=.18u  
+ W=.18u         
M_C_F_D_U63_M13         C_F_D_U63_ND6 C_F_D_ND2SB6 C_F_D_U63_ND7 0 CMOSN  
+ L=.18u  
+ W=.18u         
M_C_F_D_U63_M10         C_F_D_U63_ND5 C_F_D_ND2SB5 C_F_D_U63_ND6 0 CMOSN  
+ L=.18u  
+ W=.18u         
M_C_F_D_U63_M3         C_F_D_N567419 C_F_D_ND2SB2 N116990 N116990 CMOSP  
+ L=.18u  
+ W=.2u         
M_C_F_D_U63_M14         C_F_D_U63_ND7 C_F_D_ND2SB7 C_F_D_U63_ND8 0 CMOSN  
+ L=.18u  
+ W=.18u         
M_C_F_D_U63_M8         C_F_D_N567419 C_F_D_ND2SB7 N116990 N116990 CMOSP  
+ L=.18u  
+ W=.2u         
M_C_F_D_U63_M4         C_F_D_N567419 C_F_D_ND2SB3 N116990 N116990 CMOSP  
+ L=.18u  
+ W=.2u         
M_C_F_D_U63_M15         C_F_D_U63_ND8 C_F_D_ND2SB8 0 0 CMOSN  
+ L=.18u  
+ W=.18u         
M_C_F_D_U21_M5         C_F_D_N564924 Q56 N116990 N116990 CMOSP  
+ L=.18u  
+ W=.2u         
M_C_F_D_U21_M6         C_F_D_N564924 Q56 0 0 CMOSN  
+ L=.18u  
+ W=.18u         
M_C_F_D_U134_M16         X3 C_F_D_NDLSB20 N116990 N116990 CMOSP  
+ L=.18u  
+ W=.2u         
M_C_F_D_U134_M5         X3 C_F_D_NDLSB24 N116990 N116990 CMOSP  
+ L=.18u  
+ W=.2u         
M_C_F_D_U134_M11         X3 C_F_D_NDLSB17 N116990 N116990 CMOSP  
+ L=.18u  
+ W=.2u         
M_C_F_D_U134_M9         X3 C_F_D_NDLSB22 N116990 N116990 CMOSP  
+ L=.18u  
+ W=.2u         
M_C_F_D_U134_M1         X3 C_F_D_NDLSB17 C_F_D_U134_ND2 0 CMOSN  
+ L=.18u  
+ W=.18u         
M_C_F_D_U134_M6         C_F_D_U134_ND3 C_F_D_NDLSB19 C_F_D_U134_ND4 0 CMOSN  
+ L=.18u  
+ W=.18u         
M_C_F_D_U134_M7         C_F_D_U134_ND4 C_F_D_NDLSB20 C_F_D_U134_ND5 0 CMOSN  
+ L=.18u  
+ W=.18u         
M_C_F_D_U134_M12         X3 C_F_D_NDLSB21 N116990 N116990 CMOSP  
+ L=.18u  
+ W=.2u         
M_C_F_D_U134_M2         C_F_D_U134_ND2 C_F_D_NDLSB18 C_F_D_U134_ND3 0 CMOSN  
+ L=.18u  
+ W=.18u         
M_C_F_D_U134_M13         C_F_D_U134_ND6 C_F_D_NDLSB22 C_F_D_U134_ND7 0 CMOSN  
+ L=.18u  
+ W=.18u         
M_C_F_D_U134_M10         C_F_D_U134_ND5 C_F_D_NDLSB21 C_F_D_U134_ND6 0 CMOSN  
+ L=.18u  
+ W=.18u         
M_C_F_D_U134_M3         X3 C_F_D_NDLSB18 N116990 N116990 CMOSP  
+ L=.18u  
+ W=.2u         
M_C_F_D_U134_M14         C_F_D_U134_ND7 C_F_D_NDLSB23 C_F_D_U134_ND8 0 CMOSN  
+ L=.18u  
+ W=.18u         
M_C_F_D_U134_M8         X3 C_F_D_NDLSB23 N116990 N116990 CMOSP  
+ L=.18u  
+ W=.2u         
M_C_F_D_U134_M4         X3 C_F_D_NDLSB19 N116990 N116990 CMOSP  
+ L=.18u  
+ W=.2u         
M_C_F_D_U134_M15         C_F_D_U134_ND8 C_F_D_NDLSB24 0 0 CMOSN  
+ L=.18u  
+ W=.18u         
M_C_F_D_U3_M5         C_F_D_N259565 Q16 N116990 N116990 CMOSP  
+ L=.18u  
+ W=.2u         
M_C_F_D_U3_M6         C_F_D_N259565 Q16 0 0 CMOSN  
+ L=.18u  
+ W=.18u         
M_C_F_D_U114_M5         C_F_D_N573076 Q58 N116990 N116990 CMOSP  
+ L=.18u  
+ W=.2u         
M_C_F_D_U114_M6         C_F_D_N573076 Q58 0 0 CMOSN  
+ L=.18u  
+ W=.18u         
M_C_F_D_U6_M5         C_F_D-5SB C_F_D_ND5SB1 N116990 N116990 CMOSP  
+ L=.18u  
+ W=.2u         
M_C_F_D_U6_M6         C_F_D-5SB C_F_D_ND5SB1 C_F_D_U6_ND2 0 CMOSN  
+ L=.18u  
+ W=.18u         
M_C_F_D_U6_M2         C_F_D_U6_ND2 C_F_D_ND5SB2 0 0 CMOSN  
+ L=.18u  
+ W=.18u         
M_C_F_D_U6_M4         C_F_D-5SB C_F_D_ND5SB2 N116990 N116990 CMOSP  
+ L=.18u  
+ W=.2u         
M_C_F_D_U102_M5         C_F_D_N572074 Q34 N116990 N116990 CMOSP  
+ L=.18u  
+ W=.2u         
M_C_F_D_U102_M6         C_F_D_N572074 Q34 0 0 CMOSN  
+ L=.18u  
+ W=.18u         
M_C_F_D_U36_M5         C_F_D_N568545 Q20 N116990 N116990 CMOSP  
+ L=.18u  
+ W=.2u         
M_C_F_D_U36_M6         C_F_D_N568545 Q20 0 0 CMOSN  
+ L=.18u  
+ W=.18u         
M_C_F_D_U68_M5         C_F_D_NDLSB1 Q1 N116990 N116990 CMOSP  
+ L=.18u  
+ W=.2u         
M_C_F_D_U68_M6         C_F_D_NDLSB1 Q1 0 0 CMOSN  
+ L=.18u  
+ W=.18u         
M_C_F_D_U85_M5         C_F_D_NDLSB3 C_F_D_N578622 N116990 N116990 CMOSP  
+ L=.18u  
+ W=.2u         
M_C_F_D_U85_M6         C_F_D_NDLSB3 C_F_D_N578622 C_F_D_U85_ND2 0 CMOSN  
+ L=.18u  
+ W=.18u         
M_C_F_D_U85_M2         C_F_D_U85_ND2 Q5 0 0 CMOSN  
+ L=.18u  
+ W=.18u         
M_C_F_D_U85_M4         C_F_D_NDLSB3 Q5 N116990 N116990 CMOSP  
+ L=.18u  
+ W=.2u         
M_C_F_D_U107_M5         C_F_D_N572144 Q44 N116990 N116990 CMOSP  
+ L=.18u  
+ W=.2u         
M_C_F_D_U107_M6         C_F_D_N572144 Q44 0 0 CMOSN  
+ L=.18u  
+ W=.18u         
M_C_F_D_U140_M7         C_F_D-LSB C_F_D_NDX1LSB N116990 N116990 CMOSP  
+ L=.18u  
+ W=.2u         
M_C_F_D_U140_M8         C_F_D-LSB C_F_D_NDX2LSB N116990 N116990 CMOSP  
+ L=.18u  
+ W=.2u         
M_C_F_D_U140_M12         C_F_D-LSB C_F_D_NDX4LSB N116990 N116990 CMOSP  
+ L=.18u  
+ W=.2u         
M_C_F_D_U140_M9         C_F_D-LSB C_F_D_NDX3LSB N116990 N116990 CMOSP  
+ L=.18u  
+ W=.2u         
M_C_F_D_U140_M1         C_F_D-LSB C_F_D_NDX1LSB C_F_D_U140_ND2 0 CMOSN  
+ L=.18u  
+ W=.18u         
M_C_F_D_U140_M10         C_F_D_U140_ND3 C_F_D_NDX3LSB C_F_D_U140_ND4 0 CMOSN  
+ L=.18u  
+ W=.18u         
M_C_F_D_U140_M3         C_F_D_U140_ND2 C_F_D_NDX2LSB C_F_D_U140_ND3 0 CMOSN  
+ L=.18u  
+ W=.18u         
M_C_F_D_U140_M11         C_F_D_U140_ND4 C_F_D_NDX4LSB 0 0 CMOSN  
+ L=.18u  
+ W=.18u         
M_C_F_D_U78_M5         C_F_D_N578552 Q26 N116990 N116990 CMOSP  
+ L=.18u  
+ W=.2u         
M_C_F_D_U78_M6         C_F_D_N578552 Q26 0 0 CMOSN  
+ L=.18u  
+ W=.18u         
M_C_F_D_U60_M5         C_F_D_ND2SB15 C_F_D_N567851 N116990 N116990 CMOSP  
+ L=.18u  
+ W=.2u         
M_C_F_D_U60_M6         C_F_D_ND2SB15 C_F_D_N567851 C_F_D_U60_ND2 0 CMOSN  
+ L=.18u  
+ W=.18u         
M_C_F_D_U60_M2         C_F_D_U60_ND2 Q58 0 0 CMOSN  
+ L=.18u  
+ W=.18u         
M_C_F_D_U60_M4         C_F_D_ND2SB15 Q58 N116990 N116990 CMOSP  
+ L=.18u  
+ W=.2u         
M_C_F_D_U120_M5         C_F_D_NDLSB20 C_F_D_N793529 N116990 N116990 CMOSP  
+ L=.18u  
+ W=.2u         
M_C_F_D_U120_M6         C_F_D_NDLSB20 C_F_D_N793529 C_F_D_U120_ND2 0 CMOSN  
+ L=.18u  
+ W=.18u         
M_C_F_D_U120_M2         C_F_D_U120_ND2 Q39 0 0 CMOSN  
+ L=.18u  
+ W=.18u         
M_C_F_D_U120_M4         C_F_D_NDLSB20 Q39 N116990 N116990 CMOSP  
+ L=.18u  
+ W=.2u         
M_C_F_D_U19_M5         C_F_D_N565120 Q40 N116990 N116990 CMOSP  
+ L=.18u  
+ W=.2u         
M_C_F_D_U19_M6         C_F_D_N565120 Q40 0 0 CMOSN  
+ L=.18u  
+ W=.18u         
M_C_F_D_U41_M5         C_F_D_N567841 Q52 N116990 N116990 CMOSP  
+ L=.18u  
+ W=.2u         
M_C_F_D_U41_M6         C_F_D_N567841 Q52 0 0 CMOSN  
+ L=.18u  
+ W=.18u         
M_C_F_D_U118_M5         C_F_D_NDLSB18 C_F_D_N572074 N116990 N116990 CMOSP  
+ L=.18u  
+ W=.2u         
M_C_F_D_U118_M6         C_F_D_NDLSB18 C_F_D_N572074 C_F_D_U118_ND2 0 CMOSN  
+ L=.18u  
+ W=.18u         
M_C_F_D_U118_M2         C_F_D_U118_ND2 Q35 0 0 CMOSN  
+ L=.18u  
+ W=.18u         
M_C_F_D_U118_M4         C_F_D_NDLSB18 Q35 N116990 N116990 CMOSP  
+ L=.18u  
+ W=.2u         
M_C_F_D_U132_M5         C_F_D_NDLSB26 C_F_D_N573036 N116990 N116990 CMOSP  
+ L=.18u  
+ W=.2u         
M_C_F_D_U132_M6         C_F_D_NDLSB26 C_F_D_N573036 C_F_D_U132_ND2 0 CMOSN  
+ L=.18u  
+ W=.18u         
M_C_F_D_U132_M2         C_F_D_U132_ND2 Q51 0 0 CMOSN  
+ L=.18u  
+ W=.18u         
M_C_F_D_U132_M4         C_F_D_NDLSB26 Q51 N116990 N116990 CMOSP  
+ L=.18u  
+ W=.2u         
M_C_F_D_U34_M5         C_F_D_N568523 Q12 N116990 N116990 CMOSP  
+ L=.18u  
+ W=.2u         
M_C_F_D_U34_M6         C_F_D_N568523 Q12 0 0 CMOSN  
+ L=.18u  
+ W=.18u         
M_C_F_D_U137_M5         C_F_D_NDX2LSB X2 N116990 N116990 CMOSP  
+ L=.18u  
+ W=.2u         
M_C_F_D_U137_M6         C_F_D_NDX2LSB X2 0 0 CMOSN  
+ L=.18u  
+ W=.18u         
M_C_F_D_U94_M5         C_F_D_NDLSB13 C_F_D_N578534 N116990 N116990 CMOSP  
+ L=.18u  
+ W=.2u         
M_C_F_D_U94_M6         C_F_D_NDLSB13 C_F_D_N578534 C_F_D_U94_ND2 0 CMOSN  
+ L=.18u  
+ W=.18u         
M_C_F_D_U94_M2         C_F_D_U94_ND2 Q25 0 0 CMOSN  
+ L=.18u  
+ W=.18u         
M_C_F_D_U94_M4         C_F_D_NDLSB13 Q25 N116990 N116990 CMOSP  
+ L=.18u  
+ W=.2u         
M_C_F_D_U51_M5         C_F_D_ND2SB6 C_F_D_N568545 N116990 N116990 CMOSP  
+ L=.18u  
+ W=.2u         
M_C_F_D_U51_M6         C_F_D_ND2SB6 C_F_D_N568545 C_F_D_U51_ND2 0 CMOSN  
+ L=.18u  
+ W=.18u         
M_C_F_D_U51_M2         C_F_D_U51_ND2 Q22 0 0 CMOSN  
+ L=.18u  
+ W=.18u         
M_C_F_D_U51_M4         C_F_D_ND2SB6 Q22 N116990 N116990 CMOSP  
+ L=.18u  
+ W=.2u         
M_C_F_D_U89_M5         C_F_D_NDLSB7 C_F_D_N578674 N116990 N116990 CMOSP  
+ L=.18u  
+ W=.2u         
M_C_F_D_U89_M6         C_F_D_NDLSB7 C_F_D_N578674 C_F_D_U89_ND2 0 CMOSN  
+ L=.18u  
+ W=.18u         
M_C_F_D_U89_M2         C_F_D_U89_ND2 Q13 0 0 CMOSN  
+ L=.18u  
+ W=.18u         
M_C_F_D_U89_M4         C_F_D_NDLSB7 Q13 N116990 N116990 CMOSP  
+ L=.18u  
+ W=.2u         
M_C_F_D_U47_M5         C_F_D_ND2SB2 C_F_D_N568499 N116990 N116990 CMOSP  
+ L=.18u  
+ W=.2u         
M_C_F_D_U47_M6         C_F_D_ND2SB2 C_F_D_N568499 C_F_D_U47_ND2 0 CMOSN  
+ L=.18u  
+ W=.18u         
M_C_F_D_U47_M2         C_F_D_U47_ND2 Q6 0 0 CMOSN  
+ L=.18u  
+ W=.18u         
M_C_F_D_U47_M4         C_F_D_ND2SB2 Q6 N116990 N116990 CMOSP  
+ L=.18u  
+ W=.2u         
M_C_F_D_U72_M5         C_F_D_N578650 Q8 N116990 N116990 CMOSP  
+ L=.18u  
+ W=.2u         
M_C_F_D_U72_M6         C_F_D_N578650 Q8 0 0 CMOSN  
+ L=.18u  
+ W=.18u         
M_C_F_D_U17_M5         C_F_D_N565104 Q24 N116990 N116990 CMOSP  
+ L=.18u  
+ W=.2u         
M_C_F_D_U17_M6         C_F_D_N565104 Q24 0 0 CMOSN  
+ L=.18u  
+ W=.18u         
M_C_F_D_U113_M5         C_F_D_N573066 Q56 N116990 N116990 CMOSP  
+ L=.18u  
+ W=.2u         
M_C_F_D_U113_M6         C_F_D_N573066 Q56 0 0 CMOSN  
+ L=.18u  
+ W=.18u         
M_C_F_D_U100_M16         X2 C_F_D_NDLSB12 N116990 N116990 CMOSP  
+ L=.18u  
+ W=.2u         
M_C_F_D_U100_M5         X2 C_F_D_NDLSB16 N116990 N116990 CMOSP  
+ L=.18u  
+ W=.2u         
M_C_F_D_U100_M11         X2 C_F_D_NDLSB9 N116990 N116990 CMOSP  
+ L=.18u  
+ W=.2u         
M_C_F_D_U100_M9         X2 C_F_D_NDLSB14 N116990 N116990 CMOSP  
+ L=.18u  
+ W=.2u         
M_C_F_D_U100_M1         X2 C_F_D_NDLSB9 C_F_D_U100_ND2 0 CMOSN  
+ L=.18u  
+ W=.18u         
M_C_F_D_U100_M6         C_F_D_U100_ND3 C_F_D_NDLSB11 C_F_D_U100_ND4 0 CMOSN  
+ L=.18u  
+ W=.18u         
M_C_F_D_U100_M7         C_F_D_U100_ND4 C_F_D_NDLSB12 C_F_D_U100_ND5 0 CMOSN  
+ L=.18u  
+ W=.18u         
M_C_F_D_U100_M12         X2 C_F_D_NDLSB13 N116990 N116990 CMOSP  
+ L=.18u  
+ W=.2u         
M_C_F_D_U100_M2         C_F_D_U100_ND2 C_F_D_NDLSB10 C_F_D_U100_ND3 0 CMOSN  
+ L=.18u  
+ W=.18u         
M_C_F_D_U100_M13         C_F_D_U100_ND6 C_F_D_NDLSB14 C_F_D_U100_ND7 0 CMOSN  
+ L=.18u  
+ W=.18u         
M_C_F_D_U100_M10         C_F_D_U100_ND5 C_F_D_NDLSB13 C_F_D_U100_ND6 0 CMOSN  
+ L=.18u  
+ W=.18u         
M_C_F_D_U100_M3         X2 C_F_D_NDLSB10 N116990 N116990 CMOSP  
+ L=.18u  
+ W=.2u         
M_C_F_D_U100_M14         C_F_D_U100_ND7 C_F_D_NDLSB15 C_F_D_U100_ND8 0 CMOSN  
+ L=.18u  
+ W=.18u         
M_C_F_D_U100_M8         X2 C_F_D_NDLSB15 N116990 N116990 CMOSP  
+ L=.18u  
+ W=.2u         
M_C_F_D_U100_M4         X2 C_F_D_NDLSB11 N116990 N116990 CMOSP  
+ L=.18u  
+ W=.2u         
M_C_F_D_U100_M15         C_F_D_U100_ND8 C_F_D_NDLSB16 0 0 CMOSN  
+ L=.18u  
+ W=.18u         
M_C_F_D_U55_M5         C_F_D_ND2SB10 C_F_D_N567801 N116990 N116990 CMOSP  
+ L=.18u  
+ W=.2u         
M_C_F_D_U55_M6         C_F_D_ND2SB10 C_F_D_N567801 C_F_D_U55_ND2 0 CMOSN  
+ L=.18u  
+ W=.18u         
M_C_F_D_U55_M2         C_F_D_U55_ND2 Q38 0 0 CMOSN  
+ L=.18u  
+ W=.18u         
M_C_F_D_U55_M4         C_F_D_ND2SB10 Q38 N116990 N116990 CMOSP  
+ L=.18u  
+ W=.2u         
M_C_F_D_U29_M5         C_F_D_ND3SB7 C_F_D_N565130 N116990 N116990 CMOSP  
+ L=.18u  
+ W=.2u         
M_C_F_D_U29_M6         C_F_D_ND3SB7 C_F_D_N565130 C_F_D_U29_ND2 0 CMOSN  
+ L=.18u  
+ W=.18u         
M_C_F_D_U29_M2         C_F_D_U29_ND2 Q52 0 0 CMOSN  
+ L=.18u  
+ W=.18u         
M_C_F_D_U29_M4         C_F_D_ND3SB7 Q52 N116990 N116990 CMOSP  
[...]

(C_F_C49_ND+)    3.3000               (C_F_C49_ND-)    2.8787                   

(C_F_C50_ND+)    3.3000               (C_F_C50_ND-)    2.8787                   

(C_F_C51_ND+)    3.3000               (C_F_C51_ND-)    2.8787                   

(C_F_C52_ND+)    3.3000               (C_F_C52_ND-)    2.8787                   

(C_F_C53_ND+)    3.3000               (C_F_C53_ND-)    2.8787                   

(C_F_C54_ND+)    3.3000               (C_F_C54_ND-)    2.8787                   

(C_F_C55_ND+)    3.3000               (C_F_C55_ND-)    2.8787                   

(C_F_C56_ND+)    3.3000               (C_F_C56_ND-)    2.8787                   

(C_F_C57_ND+)    3.3000               (C_F_C57_ND-)    2.8787                   

(C_F_C58_ND+)    3.2998               (C_F_C58_ND-)    2.8789                   

(C_F_C59_ND+)    3.2993               (C_F_C59_ND-)    2.8794                   

(C_F_C60_ND+)    3.2975               (C_F_C60_ND-)    2.8814                   

(C_F_C61_ND+)    3.2911               (C_F_C61_ND-)    2.8876                   

(C_F_C62_ND+)    3.2652               (C_F_C62_ND-)    2.9026                   

(C_F_C63_ND+)    2.6815               (C_F_C63_ND-)    2.9165                   

(C_1R-DIV_R50)    2.4275              (C_1R-DIV_R51)    2.4725                  

(C_1R-DIV_R52)    2.5175              (C_1R-DIV_R53)    2.5625                  

(C_1R-DIV_R54)    2.6075              (C_1R-DIV_R55)    2.6525                  

(C_1R-DIV_R56)    2.6975              (C_1R-DIV_R57)    2.7425                  

(C_1R-DIV_R58)    2.7875              (C_1R-DIV_R59)    2.8325                  

(C_1R-DIV_R60)    2.8775              (C_1R-DIV_R61)    2.9225                  

(C_1R-DIV_R62)    2.9675              (C_1R-DIV_R63)    3.0125                  

(C_2R-DIV_R10)     .6275              (C_2R-DIV_R11)     .6725                  

(C_2R-DIV_R12)     .7175              (C_2R-DIV_R13)     .7625                  

(C_2R-DIV_R14)     .8075              (C_2R-DIV_R15)     .8525                  

(C_2R-DIV_R16)     .8975              (C_2R-DIV_R17)     .9425                  

(C_2R-DIV_R18)     .9875              (C_2R-DIV_R19)    1.0325                  

(C_2R-DIV_R20)    1.0775              (C_2R-DIV_R21)    1.1225                  

(C_2R-DIV_R22)    1.1675              (C_2R-DIV_R23)    1.2125                  

(C_2R-DIV_R24)    1.2575              (C_2R-DIV_R25)    1.3025                  

(C_2R-DIV_R26)    1.3475              (C_2R-DIV_R27)    1.3925                  

(C_2R-DIV_R28)    1.4375              (C_2R-DIV_R29)    1.4825                  

(C_2R-DIV_R30)    1.5275              (C_2R-DIV_R31)    1.5725                  

(C_2R-DIV_R32)    1.6175              (C_2R-DIV_R33)    1.6625                  

(C_2R-DIV_R34)    1.7075              (C_2R-DIV_R35)    1.7525                  

(C_2R-DIV_R36)    1.7975              (C_2R-DIV_R37)    1.8425                  

(C_2R-DIV_R38)    1.8875              (C_2R-DIV_R39)    1.9325                  

(C_2R-DIV_R40)    1.9775              (C_2R-DIV_R41)    2.0225                  

(C_2R-DIV_R42)    2.0675              (C_2R-DIV_R43)    2.1125                  

(C_2R-DIV_R44)    2.1575              (C_2R-DIV_R45)    2.2025                  

(C_2R-DIV_R46)    2.2475              (C_2R-DIV_R47)    2.2925                  

(C_2R-DIV_R48)    2.3375              (C_2R-DIV_R49)    2.3825                  

(C_F_D_ND2SB1)    3.3000              (C_F_D_ND2SB2)    3.3000                  

(C_F_D_ND2SB3)    3.3000              (C_F_D_ND2SB4)    3.3000                  

(C_F_D_ND2SB5)    3.3000              (C_F_D_ND2SB6)    3.3000                  

(C_F_D_ND2SB7)    3.3000              (C_F_D_ND2SB8)    3.3000                  

(C_F_D_ND2SB9)    3.3000              (C_F_D_ND3SB1)    3.3000                  

(C_F_D_ND3SB2)    3.3000              (C_F_D_ND3SB3)    3.3000                  

(C_F_D_ND3SB4)    3.3000              (C_F_D_ND3SB5)    3.3000                  

(C_F_D_ND3SB6)    3.3000              (C_F_D_ND3SB7)    3.3000                  

(C_F_D_ND3SB8)    3.3000              (C_F_D_ND4SB1)    3.3000                  

(C_F_D_ND4SB2)    3.3000              (C_F_D_ND4SB3)    3.3000                  

(C_F_D_ND4SB4)    3.3000              (C_F_D_ND5SB1)    3.3000                  

(C_F_D_ND5SB2)    3.3000              (C_F_D_NDLSB1)    3.3000                  

(C_F_D_NDLSB2)    3.3000              (C_F_D_NDLSB3)    3.3000                  

(C_F_D_NDLSB4)    3.3000              (C_F_D_NDLSB5)    3.3000                  

(C_F_D_NDLSB6)    3.3000              (C_F_D_NDLSB7)    3.3000                  

(C_F_D_NDLSB8)    3.3000              (C_F_D_NDLSB9)    3.3000                  

(C_F_D_U6_ND2) 470.0E-09              (C_F_D_U7_ND2)    2.7365                  

(C_F_D_U8_ND2)    2.7365              (C_F_D_U9_ND2)    2.7365                  

(C_F_C1_NDBIAS)    2.2986             (C_F_C2_NDBIAS)    2.2986                 

(C_F_C3_NDBIAS)    2.2986             (C_F_C4_NDBIAS)    2.2986                 

(C_F_C5_NDBIAS)    2.2986             (C_F_C6_NDBIAS)    2.2986                 

(C_F_C7_NDBIAS)    2.2986             (C_F_C8_NDBIAS)    2.2986                 

(C_F_C9_NDBIAS)    2.2986             (C_F_D_N259339)    3.3000                 

(C_F_D_N259543)    3.3000             (C_F_D_N259565)    3.3000                 

(C_F_D_N259605)    3.3000             (C_F_D_N564920)    3.3000                 

(C_F_D_N564924)    3.3000             (C_F_D_N565082)    3.3000                 

(C_F_D_N565094)    3.3000             (C_F_D_N565104)    3.3000                 

(C_F_D_N565120)    3.3000             (C_F_D_N565130)    3.3000                 

(C_F_D_N565340)    3.3000             (C_F_D_N565498) 15.04E-06                 

(C_F_D_N567401)    3.3000             (C_F_D_N567419) 15.04E-06                 

(C_F_D_N567801)    3.3000             (C_F_D_N567811)    3.3000                 

(C_F_D_N567821)    3.3000             (C_F_D_N567831)    3.3000                 

(C_F_D_N567841)    3.3000             (C_F_D_N567851)    3.3000                 

(C_F_D_N567861)    3.3000             (C_F_D_N568485)    3.3000                 

(C_F_D_N568499)    3.3000             (C_F_D_N568511)    3.3000                 

(C_F_D_N568523)    3.3000             (C_F_D_N568535)    3.3000                 

(C_F_D_N568545)    3.3000             (C_F_D_N568555)    3.3000                 

(C_F_D_N568565)    3.3000             (C_F_D_N569141)    3.3000                 

(C_F_D_N572064)    3.3000             (C_F_D_N572074)    3.3000                 

(C_F_D_N572104)    3.3000             (C_F_D_N572124)    3.3000                 

(C_F_D_N572134)    3.3000             (C_F_D_N572144)    3.3000                 

(C_F_D_N572160)    3.3000             (C_F_D_N573020)    3.3000                 

(C_F_D_N573036)    3.3000             (C_F_D_N573046)    3.3000                 

(C_F_D_N573056)    3.3000             (C_F_D_N573066)    3.3000                 

(C_F_D_N573076)    3.3000             (C_F_D_N573086)    3.3000                 

(C_F_D_N573096)    3.3000             (C_F_D_N578480)    3.3000                 

(C_F_D_N578504)    3.3000             (C_F_D_N578514)    3.3000                 

(C_F_D_N578524)    3.3000             (C_F_D_N578534)    3.3000                 

(C_F_D_N578552)    3.3000             (C_F_D_N578562)    3.3000                 

(C_F_D_N578578)    3.3000             (C_F_D_N578608)    3.3000                 

(C_F_D_N578622)    3.3000             (C_F_D_N578636)    3.3000                 

(C_F_D_N578650)    3.3000             (C_F_D_N578662)    3.3000                 

(C_F_D_N578674)    3.3000             (C_F_D_N578686)    3.3000                 

(C_F_D_N793529)    3.3000             (C_F_D_N941987) 15.04E-06                 

(C_F_D_ND2SB10)    3.3000             (C_F_D_ND2SB11)    3.3000                 

(C_F_D_ND2SB12)    3.3000             (C_F_D_ND2SB13)    3.3000                 

(C_F_D_ND2SB14)    3.3000             (C_F_D_ND2SB15)    3.3000                 

(C_F_D_ND2SB16)    3.3000             (C_F_D_NDLSB10)    3.3000                 

(C_F_D_NDLSB11)    3.3000             (C_F_D_NDLSB12)    3.3000                 

(C_F_D_NDLSB13)    3.3000             (C_F_D_NDLSB14)    3.3000                 

(C_F_D_NDLSB15)    3.3000             (C_F_D_NDLSB16)    3.3000                 

(C_F_D_NDLSB17)    3.3000             (C_F_D_NDLSB18)    3.3000                 

(C_F_D_NDLSB19)    3.3000             (C_F_D_NDLSB20)    3.3000                 

(C_F_D_NDLSB21)    3.3000             (C_F_D_NDLSB22)    3.3000                 

(C_F_D_NDLSB23)    3.3000             (C_F_D_NDLSB24)    3.3000                 

(C_F_D_NDLSB25)    3.3000             (C_F_D_NDLSB26)    3.3000                 

(C_F_D_NDLSB27)    3.3000             (C_F_D_NDLSB28)    3.3000                 

(C_F_D_NDLSB29)    3.3000             (C_F_D_NDLSB30)    3.3000                 

(C_F_D_NDLSB31)    3.3000             (C_F_D_NDLSB32) 1.125E-06                 

(C_F_D_NDX1LSB)    3.3000             (C_F_D_NDX2LSB)    3.3000                 

(C_F_D_NDX3LSB)    3.3000             (C_F_D_NDX4LSB) 235.0E-09                 

(C_F_D_U10_ND2)    2.7365             (C_F_D_U12_ND2) 2.820E-06                 

(C_F_D_U12_ND3) 1.880E-06             (C_F_D_U12_ND4) 939.9E-09                 

(C_F_D_U13_ND2) 13.16E-06             (C_F_D_U13_ND3) 11.28E-06                 

(C_F_D_U13_ND4) 9.399E-06             (C_F_D_U13_ND5) 7.519E-06                 

(C_F_D_U13_ND6) 5.640E-06             (C_F_D_U13_ND7) 3.760E-06                 

(C_F_D_U13_ND8) 1.880E-06             (C_F_D_U24_ND2)    2.7365                 

(C_F_D_U25_ND2)    2.7365             (C_F_D_U26_ND2)    2.7365                 

(C_F_D_U27_ND2)    2.7365             (C_F_D_U28_ND2)    2.7365                 

(C_F_D_U29_ND2)    2.7365             (C_F_D_U30_ND2)    2.7365                 

(C_F_D_U47_ND2)    2.7365             (C_F_D_U48_ND2)    2.7365                 

(C_F_D_U49_ND2)    2.7365             (C_F_D_U50_ND2)    2.7365                 

(C_F_D_U51_ND2)    2.7365             (C_F_D_U52_ND2)    2.7365                 

(C_F_D_U53_ND2)    2.7365             (C_F_D_U54_ND2)    2.7365                 

(C_F_D_U55_ND2)    2.7365             (C_F_D_U56_ND2)    2.7365                 

(C_F_D_U57_ND2)    2.7365             (C_F_D_U58_ND2)    2.7365                 

(C_F_D_U59_ND2)    2.7365             (C_F_D_U60_ND2)    2.7365                 

(C_F_D_U61_ND2)    2.7364             (C_F_D_U62_ND2) 470.0E-09                 

(C_F_D_U63_ND2) 13.16E-06             (C_F_D_U63_ND3) 11.28E-06                 

(C_F_D_U63_ND4) 9.399E-06             (C_F_D_U63_ND5) 7.519E-06                 

(C_F_D_U63_ND6) 5.640E-06             (C_F_D_U63_ND7) 3.760E-06                 

(C_F_D_U63_ND8) 1.880E-06             (C_F_D_U64_ND2) 13.16E-06                 

(C_F_D_U64_ND3) 11.28E-06             (C_F_D_U64_ND4) 9.399E-06                 

(C_F_D_U64_ND5) 7.519E-06             (C_F_D_U64_ND6) 5.639E-06                 

(C_F_D_U64_ND7) 3.760E-06             (C_F_D_U64_ND8) 1.880E-06                 

(C_F_D_U84_ND2)    2.7365             (C_F_D_U85_ND2)    2.7365                 

(C_F_D_U86_ND2)    2.7365             (C_F_D_U87_ND2)    2.7365                 

(C_F_D_U88_ND2)    2.7365             (C_F_D_U89_ND2)    2.7365                 

(C_F_D_U90_ND2)    2.7365             (C_F_D_U91_ND2)    2.7365                 

(C_F_D_U92_ND2)    2.7365             (C_F_D_U93_ND2)    2.7365                 

(C_F_D_U94_ND2)    2.7365             (C_F_D_U95_ND2)    2.7365                 

(C_F_D_U96_ND2)    2.7365             (C_F_D_U97_ND2)    2.7365                 

(C_F_D_U98_ND2)    2.7365             (C_F_D_U99_ND2) 13.16E-06                 

(C_F_D_U99_ND3) 11.28E-06             (C_F_D_U99_ND4) 9.399E-06                 

(C_F_D_U99_ND5) 7.519E-06             (C_F_D_U99_ND6) 5.640E-06                 

(C_F_D_U99_ND7) 3.760E-06             (C_F_D_U99_ND8) 1.880E-06                 

(C_F_R1_N62128)    3.3000             (C_F_R1_N62152) 939.9E-09                 

(C_F_R2_N62128) 939.9E-09             (C_F_R2_N62152)    3.3000                 

(C_F_R3_N62128) 939.9E-09             (C_F_R3_N62152)    3.3000                 

(C_F_R4_N62128) 939.9E-09             (C_F_R4_N62152)    3.3000                 

(C_F_R5_N62128) 939.9E-09             (C_F_R5_N62152)    3.3000                 

(C_F_R6_N62128) 939.9E-09             (C_F_R6_N62152)    3.3000                 

(C_F_C10_NDBIAS)    2.2986            (C_F_C11_NDBIAS)    2.2986                

(C_F_C12_NDBIAS)    2.2986            (C_F_C13_NDBIAS)    2.2986                

(C_F_C14_NDBIAS)    2.2986            (C_F_C15_NDBIAS)    2.2986                

(C_F_C16_NDBIAS)    2.2986            (C_F_C17_NDBIAS)    2.2986                

(C_F_C18_NDBIAS)    2.2986            (C_F_C19_NDBIAS)    2.2986                

(C_F_C20_NDBIAS)    2.2986            (C_F_C21_NDBIAS)    2.2986                

(C_F_C22_NDBIAS)    2.2986            (C_F_C23_NDBIAS)    2.2986                

(C_F_C24_NDBIAS)    2.2986            (C_F_C25_NDBIAS)    2.2986                

(C_F_C26_NDBIAS)    2.2986            (C_F_C27_NDBIAS)    2.2986                

(C_F_C28_NDBIAS)    2.2986            (C_F_C29_NDBIAS)    2.2986                

(C_F_C30_NDBIAS)    2.2986            (C_F_C31_NDBIAS)    2.2986                

(C_F_C32_NDBIAS)    2.2986            (C_F_C33_NDBIAS)    2.2986                

(C_F_C34_NDBIAS)    2.2986            (C_F_C35_NDBIAS)    2.2986                

(C_F_C36_NDBIAS)    2.2986            (C_F_C37_NDBIAS)    2.2986                

(C_F_C38_NDBIAS)    2.2986            (C_F_C39_NDBIAS)    2.2986                

(C_F_C40_NDBIAS)    2.2986            (C_F_C41_NDBIAS)    2.2986                

(C_F_C42_NDBIAS)    2.2986            (C_F_C43_NDBIAS)    2.2986                

(C_F_C44_NDBIAS)    2.2986            (C_F_C45_NDBIAS)    2.2986                

(C_F_C46_NDBIAS)    2.2986            (C_F_C47_NDBIAS)    2.2986                

(C_F_C48_NDBIAS)    2.2986            (C_F_C49_NDBIAS)    2.2986                

(C_F_C50_NDBIAS)    2.2986            (C_F_C51_NDBIAS)    2.2986                

(C_F_C52_NDBIAS)    2.2986            (C_F_C53_NDBIAS)    2.2986                

(C_F_C54_NDBIAS)    2.2986            (C_F_C55_NDBIAS)    2.2986                

(C_F_C56_NDBIAS)    2.2986            (C_F_C57_NDBIAS)    2.2986                

(C_F_C58_NDBIAS)    2.2987            (C_F_C59_NDBIAS)    2.2991                

(C_F_C60_NDBIAS)    2.3005            (C_F_C61_NDBIAS)    2.3047                

(C_F_C62_NDBIAS)    2.3152            (C_F_C63_NDBIAS)    2.3250                

(C_F_D_U100_ND2) 13.16E-06            (C_F_D_U100_ND3) 11.28E-06                

(C_F_D_U100_ND4) 9.399E-06            (C_F_D_U100_ND5) 7.519E-06                

(C_F_D_U100_ND6) 5.639E-06            (C_F_D_U100_ND7) 3.760E-06                

(C_F_D_U100_ND8) 1.880E-06            (C_F_D_U117_ND2)    2.7365                

(C_F_D_U118_ND2)    2.7365            (C_F_D_U119_ND2)    2.7365                

(C_F_D_U120_ND2)    2.7365            (C_F_D_U121_ND2)    2.7365                

(C_F_D_U122_ND2)    2.7365            (C_F_D_U123_ND2)    2.7365                

(C_F_D_U124_ND2)    2.7365            (C_F_D_U125_ND2) 560.9E-09                

(C_F_D_U126_ND2)    2.7365            (C_F_D_U127_ND2)    2.7365                

(C_F_D_U129_ND2)    2.7365            (C_F_D_U130_ND2)    2.7365                

(C_F_D_U131_ND2)    2.7365            (C_F_D_U132_ND2)    2.7365                

(C_F_D_U133_ND2)    2.7365            (C_F_D_U134_ND2) 13.16E-06                

(C_F_D_U134_ND3) 11.28E-06            (C_F_D_U134_ND4) 9.399E-06                

(C_F_D_U134_ND5) 7.519E-06            (C_F_D_U134_ND6) 5.639E-06                

(C_F_D_U134_ND7) 3.760E-06            (C_F_D_U134_ND8) 1.880E-06                

(C_F_D_U135_ND2)    2.7361            (C_F_D_U135_ND3)    2.6961                

(C_F_D_U135_ND4)    2.6773            (C_F_D_U135_ND5)    2.6654                

(C_F_D_U135_ND6)    2.6567            (C_F_D_U135_ND7)    2.6499                

(C_F_D_U135_ND8)    2.6443            (C_F_D_U140_ND2)    2.7367                

(C_F_D_U140_ND3)    2.6967            (C_F_D_U140_ND4)    2.6779                

(C_1R-DIV_N02264)     .6500           (C_1R-DIV_N03019)    2.5400               

(C_1R-DIV_N03082)    2.0450           (C_1R-DIV_N03146)    1.5500               

(C_1R-DIV_N03539)    1.0550           (C_1R-DIV_N17274)     .2450               

(C_2R-DIV_N02264)     .6500           (C_2R-DIV_N03019)    2.5400               

(C_2R-DIV_N03082)    2.0450           (C_2R-DIV_N03146)    1.5500               

(C_2R-DIV_N03539)    1.0550           (C_2R-DIV_N17274)     .2450               

(C_1R-DIV_N169051)     .2000          (C_2R-DIV_N169051)     .2000              

(C_F_R1_NAND1_ND2)    2.7798          (C_F_R1_NAND1_ND3)     .0483              

(C_F_R1_NAND2_ND2) 2.241E-06          (C_F_R1_NAND3_ND2)    2.7365              

(C_F_R1_NAND4_ND2)     .0947          (C_F_R1_NAND5_ND2) 227.1E-06              

(C_F_R1_NAND6_ND2) 469.9E-09          (C_F_R2_NAND1_ND2)    2.7365              

(C_F_R2_NAND1_ND3) 1.776E-06          (C_F_R2_NAND2_ND2) 469.9E-09              

(C_F_R2_NAND3_ND2)     .0537          (C_F_R2_NAND4_ND2)     .0947              

(C_F_R2_NAND5_ND2) 227.1E-06          (C_F_R2_NAND6_ND2)    2.7365              

(C_F_R3_NAND1_ND2)    2.7365          (C_F_R3_NAND1_ND3) 1.776E-06              

(C_F_R3_NAND2_ND2) 469.9E-09          (C_F_R3_NAND3_ND2)     .0537              

(C_F_R3_NAND4_ND2)     .0947          (C_F_R3_NAND5_ND2) 227.1E-06              

(C_F_R3_NAND6_ND2)    2.7365          (C_F_R4_NAND1_ND2)    2.7365              

(C_F_R4_NAND1_ND3) 1.776E-06          (C_F_R4_NAND2_ND2) 469.9E-09              

(C_F_R4_NAND3_ND2)     .0537          (C_F_R4_NAND4_ND2)     .0947              

(C_F_R4_NAND5_ND2) 227.1E-06          (C_F_R4_NAND6_ND2)    2.7365              

(C_F_R5_NAND1_ND2)    2.7365          (C_F_R5_NAND1_ND3) 1.776E-06              

(C_F_R5_NAND2_ND2) 469.9E-09          (C_F_R5_NAND3_ND2)     .0537              

(C_F_R5_NAND4_ND2)     .0947          (C_F_R5_NAND5_ND2) 227.1E-06              

(C_F_R5_NAND6_ND2)    2.7365          (C_F_R6_NAND1_ND2)    2.7365              

(C_F_R6_NAND1_ND3) 1.776E-06          (C_F_R6_NAND2_ND2) 469.9E-09              

(C_F_R6_NAND3_ND2)     .0537          (C_F_R6_NAND4_ND2)     .0947              

(C_F_R6_NAND5_ND2) 227.1E-06          (C_F_R6_NAND6_ND2)    2.7365          




    VOLTAGE SOURCE CURRENTS
    NAME         CURRENT

    V_Clock      0.000E+00
    V_C_1R-DIV_V1   4.500E-06
    V_C_2R-DIV_V1   4.500E-06
    V_VBIAS      0.000E+00
    V_VDD       -2.157E-04
    V_VREF      -9.000E-06
    V_VA         0.000E+00

    TOTAL POWER DISSIPATION   7.37E-04  WATTS



          JOB CONCLUDED

**** 04/16/10 20:51:42 ******* PSpice 16.0.0 (July 2006) ****** ID# 0 ********

 **** 04/13/10 23:25:08 ******* PSpice 16.0.0 (July 2006) ****** ID# 0 ********


 ****     JOB STATISTICS SUMMARY


******************************************************************************



  Total job time (using Solver 1)   =       12.36
