
**** 05/04/10 21:35:21 ******* PSpice 16.0.0 (July 2006) ****** ID# 0 ********

 ** Profile: "TEST-transient"  [ D:\Documents\TESIS\fiocs\Design\I-COMPARADOR-01\OrCAD\i-comparador-01-pspicefiles\test\transient.sim


 ****     CIRCUIT DESCRIPTION


******************************************************************************




** Creating circuit file "transient.cir" 
** WARNING: THIS AUTOMATICALLY GENERATED FILE MAY BE OVERWRITTEN BY SUBSEQUENT SIMULATIONS

*Libraries: 
* Profile Libraries :
* Local Libraries :
.LIB "../../../i-comparador-01-pspicefiles/i-comparador-01.lib" 
* From [PSPICE NETLIST] section of C:\OrCAD\OrCAD_16.0\tools\PSpice\PSpice.ini file:
.lib "nom.lib" 

*Analysis directives: 
.DC LIN V_VQ- .5 1.5 1m 
.PROBE V(alias(*)) I(alias(*)) W(alias(*)) D(alias(*)) NOISE(alias(*)) 
.INC "..\TEST.net" 



**** INCLUDING TEST.net ****
* source I-COMPARADOR-01
M_M2         VDIFERENCIAL IN+ VEQUILIBRIO 0 CMOSN  
+ L=.18u  
+ W=430u         
M_M3         N39461 N39461 N39211 N39211 CMOSP  
+ L=1u  
+ W=2.317u         
M_M4         VDIFERENCIAL N39461 N39211 N39211 CMOSP  
+ L=1u  
+ W=2.317u         
M_M5         VEQUILIBRIO VBIAS 0 0 CMOSN  
+ L=20u  
+ W=20u         
V_VQ+         IN+ 0 1
M_M6         OUT VDIFERENCIAL N39211 N39211 CMOSP  
+ L=1u  
+ W=37.09u         
V_VBIAS         VBIAS 0 .55
M_M7         OUT VBIAS 0 0 CMOSN  
+ L=1u  
+ W=8u         
V_VQ-         IN- 0 1
M_M1         N39461 IN- VEQUILIBRIO 0 CMOSN  
+ L=.18u  
+ W=430u         
V_VDD         N39211 0 3.3

**** RESUMING transient.cir ****
.END

Mosfet M_M2, model CMOSN: Using BSIM VERSION 3.1 or lower
WARNING -- Mosfet M_M2, model CMOSN: Pd = 0 is less than W
WARNING -- Mosfet M_M2, model CMOSN: Ps = 0 is less than W
Mosfet M_M5, model CMOSN: Using BSIM VERSION 3.1 or lower
WARNING -- Mosfet M_M5, model CMOSN: Pd = 0 is less than W
WARNING -- Mosfet M_M5, model CMOSN: Ps = 0 is less than W
Mosfet M_M7, model CMOSN: Using BSIM VERSION 3.1 or lower
WARNING -- Mosfet M_M7, model CMOSN: Pd = 0 is less than W
WARNING -- Mosfet M_M7, model CMOSN: Ps = 0 is less than W
Mosfet M_M3, model CMOSP: Using BSIM VERSION 3.1 or lower
WARNING -- Mosfet M_M3, model CMOSP: Pd = 0 is less than W
WARNING -- Mosfet M_M3, model CMOSP: Ps = 0 is less than W
Mosfet M_M6, model CMOSP: Using BSIM VERSION 3.1 or lower
WARNING -- Mosfet M_M6, model CMOSP: Pd = 0 is less than W
WARNING -- Mosfet M_M6, model CMOSP: Ps = 0 is less than W
**** 05/04/10 21:35:21 ******* PSpice 16.0.0 (July 2006) ****** ID# 0 ********

 ** Profile: "TEST-transient"  [ D:\Documents\TESIS\fiocs\Design\I-COMPARADOR-01\OrCAD\i-comparador-01-pspicefiles\test\transient.sim


 ****     MOSFET MODEL PARAMETERS


******************************************************************************




               CMOSN           CMOSP           
               NMOS            PMOS            
  T_Measured   27              27            
   T_Current   27              27            
       LEVEL    7               7            
           L  100.000000E-06  100.000000E-06 
           W  100.000000E-06  100.000000E-06 
         VTO     .299302        -.401632     
          KP  470.883200E-06  470.883200E-06 
       GAMMA    0               0            
      LAMBDA    0               0            
         RSH    6               6.4          
          IS    1.000000E-15    1.000000E-15 
          JS  100.000000E-06  100.000000E-06 
          PB     .980128         .821464     
        PBSW     .8              .8008       
          CJ  815.376400E-06    1.165977E-03 
        CJSW  166.520200E-12  122.005600E-12 
          MJ     .606194         .425655     
        MJSW     .169221         .1001       
        CGSO  500.000000E-12  500.000000E-12 
        CGDO  500.000000E-12  500.000000E-12 
        CGBO    1.000000E-12    1.000000E-12 
         TOX    4.400000E-09    4.400000E-09 
          XJ  100.000000E-09  100.000000E-09 
       UCRIT   10.000000E+03   10.000000E+03 
       DELTA     .01             .01         
      DIOMOD    2               2            
          K1     .542117         .598774     
          K2    -.035133     -630.087300E-09 
        LETA    0               0            
        WETA    0               0            
          U0  268.8192        120.6045       
       XPART     .5              .5          
        VTH0     .299302        -.401632     
          K3    1.000000E-03     .081248     
          W0  100.000000E-09    1.000000E-06 
         NLX  228.107500E-09   42.193340E-09 
        DVT0     .882304         .948505     
        DVT1     .324768         .682461     
          UA   -1.551592E-09    1.640708E-09 
          UB    2.710709E-18    1.272651E-21 
          UC   46.128640E-12 -100.000000E-12 
        VSAT  116.006100E+03  182.237700E+03 
        RDSW  150             726.9944       
        VOFF    -.091862        -.15         
     NFACTOR    1.807002         .921842     
        PCLM    2.027608         .151904     
      PDIBL1     .784214         .056431     
      PDIBL2    -.042689         .012341     
       DROUT    1                .470272     
      PSCBE1    2.314588E+09    4.022317E+09 
      PSCBE2  500.000000E-12    7.751373E-09 
          A0    1.525088         .904176     
          A1    6.962179E-03    8.069322E-03 
          A2     .524367         .560796     
       NPEAK  235.490000E+15  415.890000E+15 
         LDD    0               0            
        LITL   36.331810E-09   36.331810E-09 
         UC1  -56.000000E-12  -56.000000E-12 
        PVAG                     .124556     
        KETA    -.015366         .020751     
        ETA0    5.535422E-03    1.016564E-03 
        ETAB -671.692500E-06   -1.910199E-03 
         K3B    5.015682       19.7189       
        DVT2    -.056267        -.3          
        DSUB    3.692569E-03     .014544     
         AGS     .400988         .131884     
       DVT1W    0               0            
       DVT2W    0               0            
        PRWG     .340675        -.049475     
        PRWB    -.183865        -.420982     
     PDIBLCB    -.1            -1.000000E-03 
         DWG    5.852475E-09  -30.588980E-09 
         DWB   11.572970E-09  -11.142310E-09 
          B0  -44.157810E-09    1.909663E-06 
          B1                    5.000000E-06 
        LINT   20.701890E-09   26.472300E-09 
        WINT   12.149120E-09                 
         DLC   20.701890E-09   26.472300E-09 
         DWC   12.149120E-09    0            
          CF    0               0            
        NOIA  100.000000E+18    9.900001E+18 
        NOIB   50.000000E+03    2.400000E+03 
        NOIC   -1.400000E-12    1.400000E-12 
       LKETA   -1.853360E-03   -8.835292E-03 
       WKETA    3.404068E-03     .030613     
       PVSAT    1.045662E+03   50            
       PKETA    -.0116         -5.087778E-03 
       PVTH0   -3.570294E-03  633.898700E-06 
         PUA  -25.147800E-12  364.727200E-12 
         PUB   21.902820E-24                 
         PU0   -2.447231        7.159787     
       PRDSW   -1.670209       -5            
       PETA0 -100.000000E-06  100.000000E-06 
         PK2    3.193075E-03   31.405140E-06 
         VTM     .025864         .025864     
       PBSWG     .8              .8008       
       MJSWG     .169221         .1001       
       CJSWG  330.000000E-12  422.000000E-12 


Mosfet M_M2, model CMOSN: Using BSIM VERSION 3.1 or lower
WARNING -- Mosfet M_M2, model CMOSN: Pd = 0 is less than W
WARNING -- Mosfet M_M2, model CMOSN: Ps = 0 is less than W
Mosfet M_M5, model CMOSN: Using BSIM VERSION 3.1 or lower
WARNING -- Mosfet M_M5, model CMOSN: Pd = 0 is less than W
WARNING -- Mosfet M_M5, model CMOSN: Ps = 0 is less than W
Mosfet M_M7, model CMOSN: Using BSIM VERSION 3.1 or lower
WARNING -- Mosfet M_M7, model CMOSN: Pd = 0 is less than W
WARNING -- Mosfet M_M7, model CMOSN: Ps = 0 is less than W
Mosfet M_M3, model CMOSP: Using BSIM VERSION 3.1 or lower
WARNING -- Mosfet M_M3, model CMOSP: Pd = 0 is less than W
WARNING -- Mosfet M_M3, model CMOSP: Ps = 0 is less than W
Mosfet M_M6, model CMOSP: Using BSIM VERSION 3.1 or lower
WARNING -- Mosfet M_M6, model CMOSP: Pd = 0 is less than W
WARNING -- Mosfet M_M6, model CMOSP: Ps = 0 is less than W
Mosfet M_M2, model CMOSN: Using BSIM VERSION 3.1 or lower
WARNING -- Mosfet M_M2, model CMOSN: Pd = 0 is less than W
WARNING -- Mosfet M_M2, model CMOSN: Ps = 0 is less than W
Mosfet M_M5, model CMOSN: Using BSIM VERSION 3.1 or lower
WARNING -- Mosfet M_M5, model CMOSN: Pd = 0 is less than W
WARNING -- Mosfet M_M5, model CMOSN: Ps = 0 is less than W
Mosfet M_M7, model CMOSN: Using BSIM VERSION 3.1 or lower
WARNING -- Mosfet M_M7, model CMOSN: Pd = 0 is less than W
WARNING -- Mosfet M_M7, model CMOSN: Ps = 0 is less than W
Mosfet M_M3, model CMOSP: Using BSIM VERSION 3.1 or lower
WARNING -- Mosfet M_M3, model CMOSP: Pd = 0 is less than W
WARNING -- Mosfet M_M3, model CMOSP: Ps = 0 is less than W
Mosfet M_M6, model CMOSP: Using BSIM VERSION 3.1 or lower
WARNING -- Mosfet M_M6, model CMOSP: Pd = 0 is less than W
WARNING -- Mosfet M_M6, model CMOSP: Ps = 0 is less than W

          JOB CONCLUDED

**** 05/04/10 21:35:21 ******* PSpice 16.0.0 (July 2006) ****** ID# 0 ********

 ** Profile: "TEST-transient"  [ D:\Documents\TESIS\fiocs\Design\I-COMPARADOR-01\OrCAD\i-comparador-01-pspicefiles\test\transient.sim


 ****     JOB STATISTICS SUMMARY


******************************************************************************



  Total job time (using Solver 1)   =         .22
