
**** 10/24/09 23:04:04 ******* PSpice 10.5.0 (Jan 2005) ******* ID# 0 ********

 ** Profile: "DECODER-8-transient"  [ D:\Documents\TESIS\TRUNK\Design\I-DECODER-001\OrCAD\I-DECODER-001\i-decoder-001-pspicefiles\dec


 ****     CIRCUIT DESCRIPTION


******************************************************************************




** Creating circuit file "transient.cir" 
** WARNING: THIS AUTOMATICALLY GENERATED FILE MAY BE OVERWRITTEN BY SUBSEQUENT SIMULATIONS

*Libraries: 
* Profile Libraries :
* Local Libraries :
.LIB "../../../i-decoder-001-pspicefiles/i-decoder-001.lib" 
* From [PSPICE NETLIST] section of C:\OrCAD\OrCAD_10.5\tools\PSpice\PSpice.ini file:
.lib "nom.lib" 

*Analysis directives: 
.TRAN  0 .1 0 .01 
.PROBE V(alias(*)) I(alias(*)) W(alias(*)) D(alias(*)) NOISE(alias(*)) 
.INC "..\DECODER-8.net" 



**** INCLUDING DECODER-8.net ****
* source I-DECODER-001
R_DECODER-8_7-NAND1_R4         0 0  10Meg  
M_DECODER-8_7-NAND1_M2         DECODER-8_7-NAND1_N38454 0
+  DECODER-8_7-NAND1_N38740 0 CMOSN  
+ L=.5u  
+ W=.8u         
M_DECODER-8_7-NAND1_M6         DECODER-8_7-NAND1_N38740 N00152
+  DECODER-8_7-NAND1_N38778 0 CMOSN  
+ L=.5u  
+ W=.8u         
M_DECODER-8_7-NAND1_M8         DECODER-8_LSB-2 0 N00201 N00201 CMOSP  
+ L=.5u  
+ W=5u         
M_DECODER-8_7-NAND1_M14         DECODER-8_7-NAND1_N43125 0 0 0 CMOSN  
+ L=.5u  
+ W=.8u         
M_DECODER-8_7-NAND1_M11         DECODER-8_LSB-2 0 N00201 N00201 CMOSP  
+ L=.5u  
+ W=5u         
R_DECODER-8_7-NAND1_R7         0 0  10Meg  
M_DECODER-8_7-NAND1_M3         DECODER-8_LSB-2 0 N00201 N00201 CMOSP  
+ L=.5u  
+ W=5u         
R_DECODER-8_7-NAND1_R1         0 0  10Meg  
M_DECODER-8_7-NAND1_M4         DECODER-8_LSB-2 N00152 N00201 N00201 CMOSP  
+ L=.5u  
+ W=5u         
R_DECODER-8_7-NAND1_R2         0 0  10Meg  
R_DECODER-8_7-NAND1_R5         0 0  10Meg  
R_DECODER-8_7-NAND1_R3         N00152 0  10Meg  
M_DECODER-8_7-NAND1_M13         DECODER-8_7-NAND1_N43046 0
+  DECODER-8_7-NAND1_N43125 0 CMOSN  
+ L=.5u  
+ W=.8u         
M_DECODER-8_7-NAND1_M9         DECODER-8_LSB-2 0 N00201 N00201 CMOSP  
+ L=.5u  
+ W=5u         
R_DECODER-8_7-NAND1_R6         0 0  10Meg  
M_DECODER-8_7-NAND1_M12         DECODER-8_LSB-2 0 N00201 N00201 CMOSP  
+ L=.5u  
+ W=5u         
M_DECODER-8_7-NAND1_M7         DECODER-8_7-NAND1_N38778 0
+  DECODER-8_7-NAND1_N39060 0 CMOSN  
+ L=.5u  
+ W=.8u         
M_DECODER-8_7-NAND1_M5         DECODER-8_LSB-2 0 N00201 N00201 CMOSP  
+ L=.5u  
+ W=5u         
M_DECODER-8_7-NAND1_M1         DECODER-8_LSB-2 0 DECODER-8_7-NAND1_N38454 0
+  CMOSN  
+ L=.5u  
+ W=.8u         
M_DECODER-8_7-NAND1_M10         DECODER-8_7-NAND1_N39060 0
+  DECODER-8_7-NAND1_N43046 0 CMOSN  
+ L=.5u  
+ W=.8u         
R_DECODER-8_7-NAND_R4         0 0  10Meg  
M_DECODER-8_7-NAND_M2         DECODER-8_7-NAND_N38454 N00152
+  DECODER-8_7-NAND_N38740 0 CMOSN  
+ L=.5u  
+ W=.8u         
M_DECODER-8_7-NAND_M6         DECODER-8_7-NAND_N38740 0 DECODER-8_7-NAND_N38778
+  0 CMOSN  
+ L=.5u  
+ W=.8u         
M_DECODER-8_7-NAND_M8         DECODER-8_LSB-1 0 N00201 N00201 CMOSP  
+ L=.5u  
+ W=5u         
M_DECODER-8_7-NAND_M14         DECODER-8_7-NAND_N43125 0 0 0 CMOSN  
+ L=.5u  
+ W=.8u         
M_DECODER-8_7-NAND_M11         DECODER-8_LSB-1 0 N00201 N00201 CMOSP  
+ L=.5u  
+ W=5u         
R_DECODER-8_7-NAND_R7         0 0  10Meg  
M_DECODER-8_7-NAND_M3         DECODER-8_LSB-1 N00152 N00201 N00201 CMOSP  
+ L=.5u  
+ W=5u         
R_DECODER-8_7-NAND_R1         0 0  10Meg  
M_DECODER-8_7-NAND_M4         DECODER-8_LSB-1 0 N00201 N00201 CMOSP  
+ L=.5u  
+ W=5u         
R_DECODER-8_7-NAND_R2         N00152 0  10Meg  
R_DECODER-8_7-NAND_R5         0 0  10Meg  
R_DECODER-8_7-NAND_R3         0 0  10Meg  
M_DECODER-8_7-NAND_M13         DECODER-8_7-NAND_N43046 0
+  DECODER-8_7-NAND_N43125 0 CMOSN  
+ L=.5u  
+ W=.8u         
M_DECODER-8_7-NAND_M9         DECODER-8_LSB-1 0 N00201 N00201 CMOSP  
+ L=.5u  
+ W=5u         
R_DECODER-8_7-NAND_R6         0 0  10Meg  
M_DECODER-8_7-NAND_M12         DECODER-8_LSB-1 0 N00201 N00201 CMOSP  
+ L=.5u  
+ W=5u         
M_DECODER-8_7-NAND_M7         DECODER-8_7-NAND_N38778 0 DECODER-8_7-NAND_N39060
+  0 CMOSN  
+ L=.5u  
+ W=.8u         
M_DECODER-8_7-NAND_M5         DECODER-8_LSB-1 0 N00201 N00201 CMOSP  
+ L=.5u  
+ W=5u         
M_DECODER-8_7-NAND_M1         DECODER-8_LSB-1 0 DECODER-8_7-NAND_N38454 0 CMOSN
+   
+ L=.5u  
+ W=.8u         
M_DECODER-8_7-NAND_M10         DECODER-8_7-NAND_N39060 0
+  DECODER-8_7-NAND_N43046 0 CMOSN  
+ L=.5u  
+ W=.8u         
R_DECODER-8_7-NAND2_R4         N00152 0  10Meg  
M_DECODER-8_7-NAND2_M2         DECODER-8_7-NAND2_N38454 0
+  DECODER-8_7-NAND2_N38740 0 CMOSN  
+ L=.5u  
+ W=.8u         
M_DECODER-8_7-NAND2_M6         DECODER-8_7-NAND2_N38740 N00152
+  DECODER-8_7-NAND2_N38778 0 CMOSN  
+ L=.5u  
+ W=.8u         
M_DECODER-8_7-NAND2_M8         DECODER-8_LSB-3 0 N00201 N00201 CMOSP  
+ L=.5u  
+ W=5u         
M_DECODER-8_7-NAND2_M14         DECODER-8_7-NAND2_N43125 0 0 0 CMOSN  
+ L=.5u  
+ W=.8u         
M_DECODER-8_7-NAND2_M11         DECODER-8_LSB-3 0 N00201 N00201 CMOSP  
+ L=.5u  
+ W=5u         
R_DECODER-8_7-NAND2_R7         0 0  10Meg  
M_DECODER-8_7-NAND2_M3         DECODER-8_LSB-3 0 N00201 N00201 CMOSP  
+ L=.5u  
+ W=5u         
R_DECODER-8_7-NAND2_R1         0 0  10Meg  
M_DECODER-8_7-NAND2_M4         DECODER-8_LSB-3 N00152 N00201 N00201 CMOSP  
+ L=.5u  
+ W=5u         
R_DECODER-8_7-NAND2_R2         0 0  10Meg  
R_DECODER-8_7-NAND2_R5         N00152 0  10Meg  
R_DECODER-8_7-NAND2_R3         N00152 0  10Meg  
M_DECODER-8_7-NAND2_M13         DECODER-8_7-NAND2_N43046 0
+  DECODER-8_7-NAND2_N43125 0 CMOSN  
+ L=.5u  
+ W=.8u         
M_DECODER-8_7-NAND2_M9         DECODER-8_LSB-3 N00152 N00201 N00201 CMOSP  
+ L=.5u  
+ W=5u         
R_DECODER-8_7-NAND2_R6         0 0  10Meg  
M_DECODER-8_7-NAND2_M12         DECODER-8_LSB-3 N00152 N00201 N00201 CMOSP  
+ L=.5u  
+ W=5u         
M_DECODER-8_7-NAND2_M7         DECODER-8_7-NAND2_N38778 N00152
+  DECODER-8_7-NAND2_N39060 0 CMOSN  
+ L=.5u  
+ W=.8u         
M_DECODER-8_7-NAND2_M5         DECODER-8_LSB-3 0 N00201 N00201 CMOSP  
+ L=.5u  
+ W=5u         
M_DECODER-8_7-NAND2_M1         DECODER-8_LSB-3 0 DECODER-8_7-NAND2_N38454 0
+  CMOSN  
+ L=.5u  
+ W=.8u         
M_DECODER-8_7-NAND2_M10         DECODER-8_7-NAND2_N39060 N00152
+  DECODER-8_7-NAND2_N43046 0 CMOSN  
+ L=.5u  
+ W=.8u         
R_DECODER-8_4-NAND_R3         DECODER-8_LSB-3 0  10Meg  
M_DECODER-8_4-NAND_M1         N00162 DECODER-8_LSB-1 DECODER-8_4-NAND_N28403 0
+  CMOSN  
+ L=.5u  
+ W=.8u         
M_DECODER-8_4-NAND_M5         N00162 DECODER-8_LSB-3 N00201 N00201 CMOSP  
+ L=.5u  
+ W=5u         
R_DECODER-8_4-NAND_R4         DECODER-8_LSB-4 0  10Meg  
M_DECODER-8_4-NAND_M2         DECODER-8_4-NAND_N28403 DECODER-8_LSB-2
+  DECODER-8_4-NAND_N28818 0 CMOSN  
+ L=.5u  
+ W=.8u         
M_DECODER-8_4-NAND_M3         N00162 DECODER-8_LSB-1 N00201 N00201 CMOSP  
+ L=.5u  
+ W=5u         
M_DECODER-8_4-NAND_M6         DECODER-8_4-NAND_N28818 DECODER-8_LSB-3
+  DECODER-8_4-NAND_N29978 0 CMOSN  
+ L=.5u  
+ W=.8u         
M_DECODER-8_4-NAND_M7         DECODER-8_4-NAND_N29978 DECODER-8_LSB-4 0 0 CMOSN
+   
+ L=.5u  
+ W=.8u         
M_DECODER-8_4-NAND_M4         N00162 DECODER-8_LSB-2 N00201 N00201 CMOSP  
+ L=.5u  
+ W=5u         
M_DECODER-8_4-NAND_M8         N00162 DECODER-8_LSB-4 N00201 N00201 CMOSP  
+ L=.5u  
+ W=5u         
R_DECODER-8_4-NAND_R1         DECODER-8_LSB-1 0  10Meg  
R_DECODER-8_4-NAND_R2         DECODER-8_LSB-2 0  10Meg  
M_DECODER-8_2-NAND_M4         DECODER-8_2SB-2 0 N00201 N00201 CMOSP  
+ L=.5u  
+ W=5u         
M_DECODER-8_2-NAND_M5         DECODER-8_2SB-2 0 N00201 N00201 CMOSP  
+ L=.5u  
+ W=5u         
R_DECODER-8_2-NAND_R2         0 0  10Meg  
R_DECODER-8_2-NAND_R1         0 0  10Meg  
M_DECODER-8_2-NAND_M6         DECODER-8_2SB-2 0 DECODER-8_2-NAND_N23681 0 CMOSN
+   
+ L=.5u  
+ W=.8u         
M_DECODER-8_2-NAND_M2         DECODER-8_2-NAND_N23681 0 0 0 CMOSN  
+ L=.5u  
+ W=.8u         
R_DECODER-8_7-NAND3_R4         N00152 0  10Meg  
M_DECODER-8_7-NAND3_M2         DECODER-8_7-NAND3_N38454 0
+  DECODER-8_7-NAND3_N38740 0 CMOSN  
+ L=.5u  
+ W=.8u         
M_DECODER-8_7-NAND3_M6         DECODER-8_7-NAND3_N38740 N00152
+  DECODER-8_7-NAND3_N38778 0 CMOSN  
+ L=.5u  
+ W=.8u         
M_DECODER-8_7-NAND3_M8         DECODER-8_LSB-4 N00152 N00201 N00201 CMOSP  
+ L=.5u  
+ W=5u         
M_DECODER-8_7-NAND3_M14         DECODER-8_7-NAND3_N43125 N00152 0 0 CMOSN  
+ L=.5u  
+ W=.8u         
M_DECODER-8_7-NAND3_M11         DECODER-8_LSB-4 0 N00201 N00201 CMOSP  
+ L=.5u  
+ W=5u         
R_DECODER-8_7-NAND3_R7         N00152 0  10Meg  
M_DECODER-8_7-NAND3_M3         DECODER-8_LSB-4 0 N00201 N00201 CMOSP  
+ L=.5u  
+ W=5u         
R_DECODER-8_7-NAND3_R1         0 0  10Meg  
M_DECODER-8_7-NAND3_M4         DECODER-8_LSB-4 N00152 N00201 N00201 CMOSP  
+ L=.5u  
+ W=5u         
R_DECODER-8_7-NAND3_R2         0 0  10Meg  
R_DECODER-8_7-NAND3_R5         N00152 0  10Meg  
R_DECODER-8_7-NAND3_R3         N00152 0  10Meg  
M_DECODER-8_7-NAND3_M13         DECODER-8_7-NAND3_N43046 N00152
+  DECODER-8_7-NAND3_N43125 0 CMOSN  
+ L=.5u  
+ W=.8u         
M_DECODER-8_7-NAND3_M9         DECODER-8_LSB-4 N00152 N00201 N00201 CMOSP  
+ L=.5u  
+ W=5u         
R_DECODER-8_7-NAND3_R6         N00152 0  10Meg  
M_DECODER-8_7-NAND3_M12         DECODER-8_LSB-4 N00152 N00201 N00201 CMOSP  
+ L=.5u  
+ W=5u         
M_DECODER-8_7-NAND3_M7         DECODER-8_7-NAND3_N38778 N00152
+  DECODER-8_7-NAND3_N39060 0 CMOSN  
+ L=.5u  
+ W=.8u         
M_DECODER-8_7-NAND3_M5         DECODER-8_LSB-4 N00152 N00201 N00201 CMOSP  
+ L=.5u  
+ W=5u         
M_DECODER-8_7-NAND3_M1         DECODER-8_LSB-4 0 DECODER-8_7-NAND3_N38454 0
+  CMOSN  
+ L=.5u  
+ W=.8u         
M_DECODER-8_7-NAND3_M10         DECODER-8_7-NAND3_N39060 N00152
+  DECODER-8_7-NAND3_N43046 0 CMOSN  
+ L=.5u  
+ W=.8u         
M_DECODER-8_5-NAND_M10         DECODER-8_5-NAND_N36965 N00152 0 0 CMOSN  
+ L=.5u  
+ W=.8u         
M_DECODER-8_5-NAND_M4         DECODER-8_2SB-1 0 N00201 N00201 CMOSP  
+ L=.5u  
+ W=5u         
R_DECODER-8_5-NAND_R1         0 0  10Meg  
R_DECODER-8_5-NAND_R2         0 0  10Meg  
R_DECODER-8_5-NAND_R3         N00152 0  10Meg  
M_DECODER-8_5-NAND_M7         DECODER-8_5-NAND_N33879 N00152
+  DECODER-8_5-NAND_N36965 0 CMOSN  
+ L=.5u  
+ W=.8u         
M_DECODER-8_5-NAND_M5         DECODER-8_2SB-1 N00152 N00201 N00201 CMOSP  
+ L=.5u  
+ W=5u         
M_DECODER-8_5-NAND_M1         DECODER-8_2SB-1 0 DECODER-8_5-NAND_N33539 0 CMOSN
+   
+ L=.5u  
+ W=.8u         
M_DECODER-8_5-NAND_M2         DECODER-8_5-NAND_N33539 0 DECODER-8_5-NAND_N33841
+  0 CMOSN  
+ L=.5u  
+ W=.8u         
M_DECODER-8_5-NAND_M6         DECODER-8_5-NAND_N33841 N00152
+  DECODER-8_5-NAND_N33879 0 CMOSN  
+ L=.5u  
+ W=.8u         
R_DECODER-8_5-NAND_R4         N00152 0  10Meg  
R_DECODER-8_5-NAND_R5         N00152 0  10Meg  
M_DECODER-8_5-NAND_M3         DECODER-8_2SB-1 0 N00201 N00201 CMOSP  
+ L=.5u  
+ W=5u         
M_DECODER-8_5-NAND_M8         DECODER-8_2SB-1 N00152 N00201 N00201 CMOSP  
+ L=.5u  
+ W=5u         
M_DECODER-8_5-NAND_M9         DECODER-8_2SB-1 N00152 N00201 N00201 CMOSP  
+ L=.5u  
+ W=5u         
M_DECODER-8_2-NAND1_M4         N00156 DECODER-8_2SB-2 N00201 N00201 CMOSP  
+ L=.5u  
+ W=5u         
M_DECODER-8_2-NAND1_M5         N00156 DECODER-8_2SB-1 N00201 N00201 CMOSP  
+ L=.5u  
+ W=5u         
R_DECODER-8_2-NAND1_R2         0 DECODER-8_2SB-2  10Meg  
R_DECODER-8_2-NAND1_R1         0 DECODER-8_2SB-1  10Meg  
M_DECODER-8_2-NAND1_M6         N00156 DECODER-8_2SB-1 DECODER-8_2-NAND1_N23681
+  0 CMOSN  
+ L=.5u  
+ W=.8u         
M_DECODER-8_2-NAND1_M2         DECODER-8_2-NAND1_N23681 DECODER-8_2SB-2 0 0
+  CMOSN  
+ L=.5u  
+ W=.8u         
R_R1         N00152 N00201  10Meg  
R_R2         N00156 N00201  10Meg  
R_R3         N00162 N00201  10Meg  
V_V1         N00201 0 5
V_V2         N00152 0 5

**** RESUMING transient.cir ****
.END

WARNING -- Mosfet M_DECODER-8_7-NAND1_M2, model CMOSN: Pd = 0 is less than W
WARNING -- Mosfet M_DECODER-8_7-NAND1_M2, model CMOSN: Ps = 0 is less than W
WARNING -- Mosfet M_DECODER-8_7-NAND1_M8, model CMOSP: Pd = 0 is less than W
WARNING -- Mosfet M_DECODER-8_7-NAND1_M8, model CMOSP: Ps = 0 is less than W
**** 10/24/09 23:04:04 ******* PSpice 10.5.0 (Jan 2005) ******* ID# 0 ********

 ** Profile: "DECODER-8-transient"  [ D:\Documents\TESIS\TRUNK\Design\I-DECODER-001\OrCAD\I-DECODER-001\i-decoder-001-pspicefiles\dec


 ****     MOSFET MODEL PARAMETERS


******************************************************************************




               CMOSN           CMOSP           
               NMOS            PMOS            
  T_Measured   27              27            
   T_Current   27              27            
       LEVEL    7               7            
           L  100.000000E-06  100.000000E-06 
           W  100.000000E-06  100.000000E-06 
         VTO     .299302        -.401632     
          KP  470.883200E-06  470.883200E-06 
       GAMMA    0               0            
      LAMBDA    0               0            
         RSH    6               6.4          
          IS    1.000000E-15    1.000000E-15 
          JS  100.000000E-06  100.000000E-06 
          PB     .980128         .821464     
        PBSW     .8              .8008       
          CJ  815.376400E-06    1.165977E-03 
        CJSW  166.520200E-12  122.005600E-12 
          MJ     .606194         .425655     
        MJSW     .169221         .1001       
        CGSO  500.000000E-12  500.000000E-12 
        CGDO  500.000000E-12  500.000000E-12 
        CGBO    1.000000E-12    1.000000E-12 
         TOX    4.400000E-09    4.400000E-09 
          XJ  100.000000E-09  100.000000E-09 
       UCRIT   10.000000E+03   10.000000E+03 
       DELTA     .01             .01         
      DIOMOD    2               2            
          K1     .542117         .598774     
          K2    -.035133     -630.087300E-09 
        LETA    0               0            
        WETA    0               0            
          U0  268.8192        120.6045       
       XPART     .5              .5          
        VTH0     .299302        -.401632     
          K3    1.000000E-03     .081248     
          W0  100.000000E-09    1.000000E-06 
         NLX  228.107500E-09   42.193340E-09 
        DVT0     .882304         .948505     
        DVT1     .324768         .682461     
          UA   -1.551592E-09    1.640708E-09 
          UB    2.710709E-18    1.272651E-21 
          UC   46.128640E-12 -100.000000E-12 
        VSAT  116.006100E+03  182.237700E+03 
        RDSW  150             726.9944       
        VOFF    -.091862        -.15         
     NFACTOR    1.807002         .921842     
        PCLM    2.027608         .151904     
      PDIBL1     .784214         .056431     
      PDIBL2    -.042689         .012341     
       DROUT    1                .470272     
      PSCBE1    2.314588E+09    4.022317E+09 
      PSCBE2  500.000000E-12    7.751373E-09 
          A0    1.525088         .904176     
          A1    6.962179E-03    8.069322E-03 
          A2     .524367         .560796     
       NPEAK  235.490000E+15  415.890000E+15 
         LDD    0               0            
        LITL   36.331810E-09   36.331810E-09 
         UC1  -56.000000E-12  -56.000000E-12 
        PVAG                     .124556     
        KETA    -.015366         .020751     
        ETA0    5.535422E-03    1.016564E-03 
        ETAB -671.692500E-06   -1.910199E-03 
         K3B    5.015682       19.7189       
        DVT2    -.056267        -.3          
        DSUB    3.692569E-03     .014544     
         AGS     .400988         .131884     
       DVT1W    0               0            
       DVT2W    0               0            
        PRWG     .340675        -.049475     
        PRWB    -.183865        -.420982     
     PDIBLCB    -.1            -1.000000E-03 
         DWG    5.852475E-09  -30.588980E-09 
         DWB   11.572970E-09  -11.142310E-09 
          B0  -44.157810E-09    1.909663E-06 
          B1                    5.000000E-06 
        LINT   20.701890E-09   26.472300E-09 
        WINT   12.149120E-09                 
         DLC   20.701890E-09   26.472300E-09 
         DWC   12.149120E-09    0            
          CF    0               0            
        NOIA  100.000000E+18    9.900001E+18 
        NOIB   50.000000E+03    2.400000E+03 
        NOIC   -1.400000E-12    1.400000E-12 
       LKETA   -1.853360E-03   -8.835292E-03 
       WKETA    3.404068E-03     .030613     
       PVSAT    1.045662E+03   50            
       PKETA    -.0116         -5.087778E-03 
       PVTH0   -3.570294E-03  633.898700E-06 
         PUA  -25.147800E-12  364.727200E-12 
         PUB   21.902820E-24                 
         PU0   -2.447231        7.159787     
       PRDSW   -1.670209       -5            
       PETA0 -100.000000E-06  100.000000E-06 
         PK2    3.193075E-03   31.405140E-06 
         VTM     .025864         .025864     
       PBSWG     .8              .8008       
       MJSWG     .169221         .1001       
       CJSWG  330.000000E-12  422.000000E-12 


WARNING -- Mosfet M_DECODER-8_7-NAND1_M2, model CMOSN: Pd = 0 is less than W
WARNING -- Mosfet M_DECODER-8_7-NAND1_M2, model CMOSN: Ps = 0 is less than W
WARNING -- Mosfet M_DECODER-8_7-NAND1_M8, model CMOSP: Pd = 0 is less than W
WARNING -- Mosfet M_DECODER-8_7-NAND1_M8, model CMOSP: Ps = 0 is less than W
ERROR -- Convergence problem in transient bias point calculation


  Last node voltages tried were:

 NODE   VOLTAGE     NODE   VOLTAGE     NODE   VOLTAGE     NODE   VOLTAGE


(N00152) 50.00E-06 (N00156) 49.91E-06 (N00162)    -.9915 (N00201) 50.00E-06     

(DECODER-8_2SB-1) 1.671E-06           (DECODER-8_2SB-2) 681.9E-09               

(DECODER-8_LSB-1) 2.310E-06           (DECODER-8_LSB-2)    -.7227               

(DECODER-8_LSB-3) 2.309E-06           (DECODER-8_LSB-4) 2.308E-06               

(DECODER-8_2-NAND_N23681) 339.6E-09   (DECODER-8_4-NAND_N28403)    -.3580       

(DECODER-8_4-NAND_N28818)    5.6511   (DECODER-8_4-NAND_N29978)    -.2939       

(DECODER-8_5-NAND_N33539) 1.321E-06   (DECODER-8_5-NAND_N33841) 981.4E-09       

(DECODER-8_5-NAND_N33879) 650.0E-09   (DECODER-8_5-NAND_N36965) 323.8E-09       

(DECODER-8_7-NAND_N38454) 1.948E-06   (DECODER-8_7-NAND_N38740) 1.601E-06       

(DECODER-8_7-NAND_N38778) 1.266E-06   (DECODER-8_7-NAND_N39060) 940.8E-09       

(DECODER-8_7-NAND_N43046) 623.1E-09   (DECODER-8_7-NAND_N43125) 310.3E-09       

(DECODER-8_2-NAND1_N23681) 24.85E-06  (DECODER-8_7-NAND1_N38454)    -.0851      

(DECODER-8_7-NAND1_N38740)    -.4067  (DECODER-8_7-NAND1_N38778)     .8540      

(DECODER-8_7-NAND1_N39060)   92.0600  (DECODER-8_7-NAND1_N43046)    -.0100      

(DECODER-8_7-NAND1_N43125)   -1.0610  (DECODER-8_7-NAND2_N38454) 1.947E-06      

(DECODER-8_7-NAND2_N38740) 1.599E-06  (DECODER-8_7-NAND2_N38778) 1.265E-06      

(DECODER-8_7-NAND2_N39060) 940.3E-09  (DECODER-8_7-NAND2_N43046) 623.1E-09      

(DECODER-8_7-NAND2_N43125) 310.3E-09  (DECODER-8_7-NAND3_N38454) 1.946E-06      

(DECODER-8_7-NAND3_N38740) 1.598E-06  (DECODER-8_7-NAND3_N38778) 1.264E-06      

(DECODER-8_7-NAND3_N39060) 939.4E-09  (DECODER-8_7-NAND3_N43046) 622.2E-09      

(DECODER-8_7-NAND3_N43125) 309.9E-09  


  These voltages failed to converge:

    V(DECODER-8_7-NAND1_N38454) =    -5.856V  \   -85.05mV
    V(DECODER-8_7-NAND1_N38740) =  -440.48mV  \  -406.74mV
    V(DECODER-8_7-NAND1_N38778) =    -5.354V  \   854.01mV
    V(DECODER-8_LSB-2)        =  -696.83mV  \  -722.70mV
    V(DECODER-8_7-NAND1_N43125) =  -522.65mV  \    -1.061V
    V(DECODER-8_7-NAND1_N43046) =   -45.66mV  \   -10.00mV
    V(DECODER-8_7-NAND1_N39060) =   573.60mV  \     92.06V
    V(N00162)                 =  -441.28mV  \  -991.46mV
    V(DECODER-8_4-NAND_N28403) =     1.723V  \  -358.05mV
    V(DECODER-8_4-NAND_N28818) =     5.030V  \     5.651V
    V(DECODER-8_4-NAND_N29978) =  -257.63mV  \  -293.95mV

  These supply currents failed to converge:

    I(V_V1)                   =   -25.19uA  \   -31.55uA

  These devices failed to converge:
    M_DECODER-8_7-NAND1_M2 M_DECODER-8_7-NAND1_M6 M_DECODER-8_7-NAND1_M14 
    M_DECODER-8_7-NAND1_M13 M_DECODER-8_7-NAND1_M7 M_DECODER-8_7-NAND1_M1 
    M_DECODER-8_7-NAND1_M10 M_DECODER-8_4-NAND_M1 M_DECODER-8_4-NAND_M2 
    M_DECODER-8_4-NAND_M6 M_DECODER-8_4-NAND_M7 M_DECODER-8_4-NAND_M4 

ERROR -- Discontinuing simulation due to convergence problem
**** Interrupt ****
