
**** 12/03/09 16:04:14 ******* PSpice 10.5.0 (Jan 2005) ******* ID# 0 ********

 ** Profile: "FLASH-bias"  [ D:\Documents\TESIS\TRUNK\Design\I-FLASH-01\OrCAD\I-FLASH-4BIT\i-flash-4bit-pspicefiles\flash\bias.sim ] 


 ****     CIRCUIT DESCRIPTION


******************************************************************************




** Creating circuit file "bias.cir" 
** WARNING: THIS AUTOMATICALLY GENERATED FILE MAY BE OVERWRITTEN BY SUBSEQUENT SIMULATIONS

*Libraries: 
* Profile Libraries :
* Local Libraries :
* From [PSPICE NETLIST] section of C:\OrCAD\OrCAD_10.5\tools\PSpice\PSpice.ini file:
.lib "nom.lib" 

*Analysis directives: 
.PROBE V(alias(*)) I(alias(*)) W(alias(*)) D(alias(*)) NOISE(alias(*)) 
.INC "..\FLASH.net" 



**** INCLUDING FLASH.net ****
* source I-FLASH-4BIT
V_Va         N14031 0  
+SIN 0 2.3 2.2k 0 0 0
C_FLASH_FFD11_C3         0 FLASH_FFD11_Y  10p  
M_FLASH_FFD11_NAND_M1         FLASH_FFD11_N00589 FLASH_FFD11_N00861
+  FLASH_FFD11_NAND_N00209 FLASH_FFD11_NAND_N00209 CMOSN  
+ L=.18u  
+ W=.18u         
M_FLASH_FFD11_NAND_M2         FLASH_FFD11_NAND_N00209 FLASH_FFD11_X 0 0 CMOSN  
+ L=.18u  
+ W=.18u         
M_FLASH_FFD11_NAND_M3         FLASH_FFD11_N00589 FLASH_FFD11_N00861 N01357
+  N01357 CMOSP  
+ L=.18u  
+ W=.2u         
M_FLASH_FFD11_NAND_M4         FLASH_FFD11_N00589 FLASH_FFD11_X N01357 N01357
+  CMOSP  
+ L=.18u  
+ W=.2u         
R_FLASH_FFD11_NAND_R1         FLASH_FFD11_N00861 0  10Meg  
R_FLASH_FFD11_NAND_R2         FLASH_FFD11_X 0  10Meg  
M_FLASH_FFD11_NAND-3_M2         FLASH_FFD11_NAND-3_N05674 N03388
+  FLASH_FFD11_NAND-3_N05700 FLASH_FFD11_NAND-3_N05700 CMOSN  
+ L=.18u  
+ W=.18u         
M_FLASH_FFD11_NAND-3_M3         FLASH_FFD11_Y FLASH_FFD11_X N01357 N01357 CMOSP
+   
+ L=.18u  
+ W=.2u         
M_FLASH_FFD11_NAND-3_M5         FLASH_FFD11_Y FLASH_FFD11_N00861 N01357 N01357
+  CMOSP  
+ L=.18u  
+ W=.2u         
M_FLASH_FFD11_NAND-3_M4         FLASH_FFD11_Y N03388 N01357 N01357 CMOSP  
+ L=.18u  
+ W=.2u         
M_FLASH_FFD11_NAND-3_M6         FLASH_FFD11_NAND-3_N05700 FLASH_FFD11_N00861 0
+  0 CMOSN  
+ L=.18u  
+ W=.18u         
M_FLASH_FFD11_NAND-3_M1         FLASH_FFD11_Y FLASH_FFD11_X
+  FLASH_FFD11_NAND-3_N05674 FLASH_FFD11_NAND-3_N05674 CMOSN  
+ L=.18u  
+ W=.18u         
M_FLASH_FFD11_NAND1_M1         FLASH_FFD11_N00861 FLASH_FFD11_Y
+  FLASH_FFD11_NAND1_N00209 FLASH_FFD11_NAND1_N00209 CMOSN  
+ L=.18u  
+ W=.18u         
M_FLASH_FFD11_NAND1_M2         FLASH_FFD11_NAND1_N00209 FLASH_N09528 0 0 CMOSN 
+  
+ L=.18u  
+ W=.18u         
M_FLASH_FFD11_NAND1_M3         FLASH_FFD11_N00861 FLASH_FFD11_Y N01357 N01357
+  CMOSP  
+ L=.18u  
+ W=.2u         
M_FLASH_FFD11_NAND1_M4         FLASH_FFD11_N00861 FLASH_N09528 N01357 N01357
+  CMOSP  
+ L=.18u  
+ W=.2u         
R_FLASH_FFD11_NAND1_R1         FLASH_FFD11_Y 0  10Meg  
R_FLASH_FFD11_NAND1_R2         FLASH_N09528 0  10Meg  
M_FLASH_FFD11_NAND3_M1         FLASH_Q11 FLASH_FFD11_X FLASH_FFD11_NAND3_N00209
+  FLASH_FFD11_NAND3_N00209 CMOSN  
+ L=.18u  
+ W=.18u         
M_FLASH_FFD11_NAND3_M2         FLASH_FFD11_NAND3_N00209 FLASH_N094100 0 0 CMOSN
+   
+ L=.18u  
+ W=.18u         
M_FLASH_FFD11_NAND3_M3         FLASH_Q11 FLASH_FFD11_X N01357 N01357 CMOSP  
+ L=.18u  
+ W=.2u         
M_FLASH_FFD11_NAND3_M4         FLASH_Q11 FLASH_N094100 N01357 N01357 CMOSP  
+ L=.18u  
+ W=.2u         
R_FLASH_FFD11_NAND3_R1         FLASH_FFD11_X 0  10Meg  
R_FLASH_FFD11_NAND3_R2         FLASH_N094100 0  10Meg  
M_FLASH_FFD11_NAND2_M1         FLASH_FFD11_X FLASH_FFD11_N00589
+  FLASH_FFD11_NAND2_N00209 FLASH_FFD11_NAND2_N00209 CMOSN  
+ L=.18u  
+ W=.18u         
M_FLASH_FFD11_NAND2_M2         FLASH_FFD11_NAND2_N00209 N03388 0 0 CMOSN  
+ L=.18u  
+ W=.18u         
M_FLASH_FFD11_NAND2_M3         FLASH_FFD11_X FLASH_FFD11_N00589 N01357 N01357
+  CMOSP  
+ L=.18u  
+ W=.2u         
M_FLASH_FFD11_NAND2_M4         FLASH_FFD11_X N03388 N01357 N01357 CMOSP  
+ L=.18u  
+ W=.2u         
R_FLASH_FFD11_NAND2_R1         FLASH_FFD11_N00589 0  10Meg  
R_FLASH_FFD11_NAND2_R2         N03388 0  10Meg  
M_FLASH_FFD11_NAND4_M1         FLASH_N094100 FLASH_Q11 FLASH_FFD11_NAND4_N00209
+  FLASH_FFD11_NAND4_N00209 CMOSN  
+ L=.18u  
+ W=.18u         
M_FLASH_FFD11_NAND4_M2         FLASH_FFD11_NAND4_N00209 FLASH_FFD11_Y 0 0 CMOSN
+   
+ L=.18u  
+ W=.18u         
M_FLASH_FFD11_NAND4_M3         FLASH_N094100 FLASH_Q11 N01357 N01357 CMOSP  
+ L=.18u  
+ W=.2u         
M_FLASH_FFD11_NAND4_M4         FLASH_N094100 FLASH_FFD11_Y N01357 N01357 CMOSP 
+  
+ L=.18u  
+ W=.2u         
R_FLASH_FFD11_NAND4_R1         FLASH_Q11 0  10Meg  
R_FLASH_FFD11_NAND4_R2         FLASH_FFD11_Y 0  10Meg  
C_FLASH_FFD4_C3         0 FLASH_FFD4_Y  10p  
M_FLASH_FFD4_NAND_M1         FLASH_FFD4_N00589 FLASH_FFD4_N00861
+  FLASH_FFD4_NAND_N00209 FLASH_FFD4_NAND_N00209 CMOSN  
+ L=.18u  
+ W=.18u         
M_FLASH_FFD4_NAND_M2         FLASH_FFD4_NAND_N00209 FLASH_FFD4_X 0 0 CMOSN  
+ L=.18u  
+ W=.18u         
M_FLASH_FFD4_NAND_M3         FLASH_FFD4_N00589 FLASH_FFD4_N00861 N01357 N01357
+  CMOSP  
+ L=.18u  
+ W=.2u         
M_FLASH_FFD4_NAND_M4         FLASH_FFD4_N00589 FLASH_FFD4_X N01357 N01357 CMOSP
+   
+ L=.18u  
+ W=.2u         
R_FLASH_FFD4_NAND_R1         FLASH_FFD4_N00861 0  10Meg  
R_FLASH_FFD4_NAND_R2         FLASH_FFD4_X 0  10Meg  
M_FLASH_FFD4_NAND-3_M2         FLASH_FFD4_NAND-3_N05674 N03388
+  FLASH_FFD4_NAND-3_N05700 FLASH_FFD4_NAND-3_N05700 CMOSN  
+ L=.18u  
+ W=.18u         
M_FLASH_FFD4_NAND-3_M3         FLASH_FFD4_Y FLASH_FFD4_X N01357 N01357 CMOSP  
+ L=.18u  
+ W=.2u         
M_FLASH_FFD4_NAND-3_M5         FLASH_FFD4_Y FLASH_FFD4_N00861 N01357 N01357
+  CMOSP  
+ L=.18u  
+ W=.2u         
M_FLASH_FFD4_NAND-3_M4         FLASH_FFD4_Y N03388 N01357 N01357 CMOSP  
+ L=.18u  
+ W=.2u         
M_FLASH_FFD4_NAND-3_M6         FLASH_FFD4_NAND-3_N05700 FLASH_FFD4_N00861 0 0
+  CMOSN  
+ L=.18u  
+ W=.18u         
M_FLASH_FFD4_NAND-3_M1         FLASH_FFD4_Y FLASH_FFD4_X
+  FLASH_FFD4_NAND-3_N05674 FLASH_FFD4_NAND-3_N05674 CMOSN  
+ L=.18u  
+ W=.18u         
M_FLASH_FFD4_NAND1_M1         FLASH_FFD4_N00861 FLASH_FFD4_Y
+  FLASH_FFD4_NAND1_N00209 FLASH_FFD4_NAND1_N00209 CMOSN  
+ L=.18u  
+ W=.18u         
M_FLASH_FFD4_NAND1_M2         FLASH_FFD4_NAND1_N00209 FLASH_N03459 0 0 CMOSN  
+ L=.18u  
+ W=.18u         
M_FLASH_FFD4_NAND1_M3         FLASH_FFD4_N00861 FLASH_FFD4_Y N01357 N01357
+  CMOSP  
+ L=.18u  
+ W=.2u         
M_FLASH_FFD4_NAND1_M4         FLASH_FFD4_N00861 FLASH_N03459 N01357 N01357
+  CMOSP  
+ L=.18u  
+ W=.2u         
R_FLASH_FFD4_NAND1_R1         FLASH_FFD4_Y 0  10Meg  
R_FLASH_FFD4_NAND1_R2         FLASH_N03459 0  10Meg  
M_FLASH_FFD4_NAND3_M1         FLASH_Q4 FLASH_FFD4_X FLASH_FFD4_NAND3_N00209
+  FLASH_FFD4_NAND3_N00209 CMOSN  
+ L=.18u  
+ W=.18u         
M_FLASH_FFD4_NAND3_M2         FLASH_FFD4_NAND3_N00209 FLASH_-Q4 0 0 CMOSN  
+ L=.18u  
+ W=.18u         
M_FLASH_FFD4_NAND3_M3         FLASH_Q4 FLASH_FFD4_X N01357 N01357 CMOSP  
+ L=.18u  
+ W=.2u         
M_FLASH_FFD4_NAND3_M4         FLASH_Q4 FLASH_-Q4 N01357 N01357 CMOSP  
+ L=.18u  
+ W=.2u         
R_FLASH_FFD4_NAND3_R1         FLASH_FFD4_X 0  10Meg  
R_FLASH_FFD4_NAND3_R2         FLASH_-Q4 0  10Meg  
M_FLASH_FFD4_NAND2_M1         FLASH_FFD4_X FLASH_FFD4_N00589
+  FLASH_FFD4_NAND2_N00209 FLASH_FFD4_NAND2_N00209 CMOSN  
+ L=.18u  
+ W=.18u         
M_FLASH_FFD4_NAND2_M2         FLASH_FFD4_NAND2_N00209 N03388 0 0 CMOSN  
+ L=.18u  
+ W=.18u         
M_FLASH_FFD4_NAND2_M3         FLASH_FFD4_X FLASH_FFD4_N00589 N01357 N01357
+  CMOSP  
+ L=.18u  
+ W=.2u         
M_FLASH_FFD4_NAND2_M4         FLASH_FFD4_X N03388 N01357 N01357 CMOSP  
+ L=.18u  
+ W=.2u         
R_FLASH_FFD4_NAND2_R1         FLASH_FFD4_N00589 0  10Meg  
R_FLASH_FFD4_NAND2_R2         N03388 0  10Meg  
M_FLASH_FFD4_NAND4_M1         FLASH_-Q4 FLASH_Q4 FLASH_FFD4_NAND4_N00209
+  FLASH_FFD4_NAND4_N00209 CMOSN  
+ L=.18u  
+ W=.18u         
M_FLASH_FFD4_NAND4_M2         FLASH_FFD4_NAND4_N00209 FLASH_FFD4_Y 0 0 CMOSN  
+ L=.18u  
+ W=.18u         
M_FLASH_FFD4_NAND4_M3         FLASH_-Q4 FLASH_Q4 N01357 N01357 CMOSP  
+ L=.18u  
+ W=.2u         
M_FLASH_FFD4_NAND4_M4         FLASH_-Q4 FLASH_FFD4_Y N01357 N01357 CMOSP  
+ L=.18u  
+ W=.2u         
R_FLASH_FFD4_NAND4_R1         FLASH_Q4 0  10Meg  
R_FLASH_FFD4_NAND4_R2         FLASH_FFD4_Y 0  10Meg  
M_FLASH_C7_M4         FLASH_C7_N26867 FLASH_C7_N27085 N01357 N01357 CMOSP  
+ L=.2u  
+ W=.6u         
M_FLASH_C7_M5         FLASH_C7_N27149 N03836 0 0 CMOSN  
+ L=.2u  
+ W=.6u         
M_FLASH_C7_M6         FLASH_N01410 FLASH_C7_N26867 N01357 N01357 CMOSP  
+ L=.2u  
+ W=.8u         
M_FLASH_C7_M7         FLASH_N01410 N03836 0 0 CMOSN  
+ L=.2u  
+ W=.4u         
M_FLASH_C7_M1         FLASH_C7_N27085 N14031 FLASH_C7_N27149 0 CMOSN  
+ L=.2u  
+ W=.4u         
M_FLASH_C7_M2         FLASH_C7_N26867 C7 FLASH_C7_N27149 0 CMOSN  
+ L=.2u  
+ W=.4u         
M_FLASH_C7_M3         FLASH_C7_N27085 FLASH_C7_N27085 N01357 N01357 CMOSP  
+ L=.2u  
+ W=.6u         
C_FLASH_FFD12_C3         0 FLASH_FFD12_Y  10p  
M_FLASH_FFD12_NAND_M1         FLASH_FFD12_N00589 FLASH_FFD12_N00861
+  FLASH_FFD12_NAND_N00209 FLASH_FFD12_NAND_N00209 CMOSN  
+ L=.18u  
+ W=.18u         
M_FLASH_FFD12_NAND_M2         FLASH_FFD12_NAND_N00209 FLASH_FFD12_X 0 0 CMOSN  
+ L=.18u  
+ W=.18u         
M_FLASH_FFD12_NAND_M3         FLASH_FFD12_N00589 FLASH_FFD12_N00861 N01357
+  N01357 CMOSP  
+ L=.18u  
+ W=.2u         
M_FLASH_FFD12_NAND_M4         FLASH_FFD12_N00589 FLASH_FFD12_X N01357 N01357
+  CMOSP  
+ L=.18u  
+ W=.2u         
R_FLASH_FFD12_NAND_R1         FLASH_FFD12_N00861 0  10Meg  
R_FLASH_FFD12_NAND_R2         FLASH_FFD12_X 0  10Meg  
M_FLASH_FFD12_NAND-3_M2         FLASH_FFD12_NAND-3_N05674 N03388
+  FLASH_FFD12_NAND-3_N05700 FLASH_FFD12_NAND-3_N05700 CMOSN  
+ L=.18u  
+ W=.18u         
M_FLASH_FFD12_NAND-3_M3         FLASH_FFD12_Y FLASH_FFD12_X N01357 N01357 CMOSP
+   
+ L=.18u  
+ W=.2u         
M_FLASH_FFD12_NAND-3_M5         FLASH_FFD12_Y FLASH_FFD12_N00861 N01357 N01357
+  CMOSP  
+ L=.18u  
+ W=.2u         
M_FLASH_FFD12_NAND-3_M4         FLASH_FFD12_Y N03388 N01357 N01357 CMOSP  
+ L=.18u  
+ W=.2u         
M_FLASH_FFD12_NAND-3_M6         FLASH_FFD12_NAND-3_N05700 FLASH_FFD12_N00861 0
+  0 CMOSN  
+ L=.18u  
+ W=.18u         
M_FLASH_FFD12_NAND-3_M1         FLASH_FFD12_Y FLASH_FFD12_X
+  FLASH_FFD12_NAND-3_N05674 FLASH_FFD12_NAND-3_N05674 CMOSN  
+ L=.18u  
+ W=.18u         
M_FLASH_FFD12_NAND1_M1         FLASH_FFD12_N00861 FLASH_FFD12_Y
+  FLASH_FFD12_NAND1_N00209 FLASH_FFD12_NAND1_N00209 CMOSN  
+ L=.18u  
+ W=.18u         
M_FLASH_FFD12_NAND1_M2         FLASH_FFD12_NAND1_N00209 FLASH_N09726 0 0 CMOSN 
+  
+ L=.18u  
+ W=.18u         
M_FLASH_FFD12_NAND1_M3         FLASH_FFD12_N00861 FLASH_FFD12_Y N01357 N01357
+  CMOSP  
+ L=.18u  
+ W=.2u         
M_FLASH_FFD12_NAND1_M4         FLASH_FFD12_N00861 FLASH_N09726 N01357 N01357
+  CMOSP  
+ L=.18u  
+ W=.2u         
R_FLASH_FFD12_NAND1_R1         FLASH_FFD12_Y 0  10Meg  
R_FLASH_FFD12_NAND1_R2         FLASH_N09726 0  10Meg  
M_FLASH_FFD12_NAND3_M1         FLASH_Q12 FLASH_FFD12_X FLASH_FFD12_NAND3_N00209
+  FLASH_FFD12_NAND3_N00209 CMOSN  
+ L=.18u  
+ W=.18u         
M_FLASH_FFD12_NAND3_M2         FLASH_FFD12_NAND3_N00209 FLASH_-Q12 0 0 CMOSN  
+ L=.18u  
+ W=.18u         
M_FLASH_FFD12_NAND3_M3         FLASH_Q12 FLASH_FFD12_X N01357 N01357 CMOSP  
+ L=.18u  
+ W=.2u         
M_FLASH_FFD12_NAND3_M4         FLASH_Q12 FLASH_-Q12 N01357 N01357 CMOSP  
+ L=.18u  
+ W=.2u         
R_FLASH_FFD12_NAND3_R1         FLASH_FFD12_X 0  10Meg  
R_FLASH_FFD12_NAND3_R2         FLASH_-Q12 0  10Meg  
M_FLASH_FFD12_NAND2_M1         FLASH_FFD12_X FLASH_FFD12_N00589
+  FLASH_FFD12_NAND2_N00209 FLASH_FFD12_NAND2_N00209 CMOSN  
+ L=.18u  
+ W=.18u         
M_FLASH_FFD12_NAND2_M2         FLASH_FFD12_NAND2_N00209 N03388 0 0 CMOSN  
+ L=.18u  
+ W=.18u         
M_FLASH_FFD12_NAND2_M3         FLASH_FFD12_X FLASH_FFD12_N00589 N01357 N01357
+  CMOSP  
+ L=.18u  
+ W=.2u         
M_FLASH_FFD12_NAND2_M4         FLASH_FFD12_X N03388 N01357 N01357 CMOSP  
+ L=.18u  
+ W=.2u         
R_FLASH_FFD12_NAND2_R1         FLASH_FFD12_N00589 0  10Meg  
R_FLASH_FFD12_NAND2_R2         N03388 0  10Meg  
M_FLASH_FFD12_NAND4_M1         FLASH_-Q12 FLASH_Q12 FLASH_FFD12_NAND4_N00209
+  FLASH_FFD12_NAND4_N00209 CMOSN  
+ L=.18u  
+ W=.18u         
M_FLASH_FFD12_NAND4_M2         FLASH_FFD12_NAND4_N00209 FLASH_FFD12_Y 0 0 CMOSN
+   
+ L=.18u  
+ W=.18u         
M_FLASH_FFD12_NAND4_M3         FLASH_-Q12 FLASH_Q12 N01357 N01357 CMOSP  
+ L=.18u  
+ W=.2u         
M_FLASH_FFD12_NAND4_M4         FLASH_-Q12 FLASH_FFD12_Y N01357 N01357 CMOSP  
+ L=.18u  
+ W=.2u         
R_FLASH_FFD12_NAND4_R1         FLASH_Q12 0  10Meg  
R_FLASH_FFD12_NAND4_R2         FLASH_FFD12_Y 0  10Meg  
M_FLASH_C1_M4         FLASH_C1_N26867 FLASH_C1_N27085 N01357 N01357 CMOSP  
+ L=.2u  
+ W=.6u         
M_FLASH_C1_M5         FLASH_C1_N27149 N03836 0 0 CMOSN  
+ L=.2u  
+ W=.6u         
M_FLASH_C1_M6         FLASH_N03795 FLASH_C1_N26867 N01357 N01357 CMOSP  
+ L=.2u  
+ W=.8u         
M_FLASH_C1_M7         FLASH_N03795 N03836 0 0 CMOSN  
+ L=.2u  
+ W=.4u         
M_FLASH_C1_M1         FLASH_C1_N27085 N14031 FLASH_C1_N27149 0 CMOSN  
+ L=.2u  
+ W=.4u         
M_FLASH_C1_M2         FLASH_C1_N26867 C1 FLASH_C1_N27149 0 CMOSN  
+ L=.2u  
+ W=.4u         
M_FLASH_C1_M3         FLASH_C1_N27085 FLASH_C1_N27085 N01357 N01357 CMOSP  
+ L=.2u  
+ W=.6u         
C_FLASH_FFD13_C3         0 FLASH_FFD13_Y  10p  
M_FLASH_FFD13_NAND_M1         FLASH_FFD13_N00589 FLASH_FFD13_N00861
+  FLASH_FFD13_NAND_N00209 FLASH_FFD13_NAND_N00209 CMOSN  
+ L=.18u  
+ W=.18u         
M_FLASH_FFD13_NAND_M2         FLASH_FFD13_NAND_N00209 FLASH_FFD13_X 0 0 CMOSN  
+ L=.18u  
+ W=.18u         
M_FLASH_FFD13_NAND_M3         FLASH_FFD13_N00589 FLASH_FFD13_N00861 N01357
+  N01357 CMOSP  
+ L=.18u  
+ W=.2u         
M_FLASH_FFD13_NAND_M4         FLASH_FFD13_N00589 FLASH_FFD13_X N01357 N01357
+  CMOSP  
+ L=.18u  
+ W=.2u         
R_FLASH_FFD13_NAND_R1         FLASH_FFD13_N00861 0  10Meg  
R_FLASH_FFD13_NAND_R2         FLASH_FFD13_X 0  10Meg  
M_FLASH_FFD13_NAND-3_M2         FLASH_FFD13_NAND-3_N05674 N03388
+  FLASH_FFD13_NAND-3_N05700 FLASH_FFD13_NAND-3_N05700 CMOSN  
+ L=.18u  
+ W=.18u         
M_FLASH_FFD13_NAND-3_M3         FLASH_FFD13_Y FLASH_FFD13_X N01357 N01357 CMOSP
+   
+ L=.18u  
+ W=.2u         
M_FLASH_FFD13_NAND-3_M5         FLASH_FFD13_Y FLASH_FFD13_N00861 N01357 N01357
+  CMOSP  
+ L=.18u  
+ W=.2u         
M_FLASH_FFD13_NAND-3_M4         FLASH_FFD13_Y N03388 N01357 N01357 CMOSP  
+ L=.18u  
+ W=.2u         
M_FLASH_FFD13_NAND-3_M6         FLASH_FFD13_NAND-3_N05700 FLASH_FFD13_N00861 0
+  0 CMOSN  
+ L=.18u  
+ W=.18u         
M_FLASH_FFD13_NAND-3_M1         FLASH_FFD13_Y FLASH_FFD13_X
+  FLASH_FFD13_NAND-3_N05674 FLASH_FFD13_NAND-3_N05674 CMOSN  
+ L=.18u  
+ W=.18u         
M_FLASH_FFD13_NAND1_M1         FLASH_FFD13_N00861 FLASH_FFD13_Y
+  FLASH_FFD13_NAND1_N00209 FLASH_FFD13_NAND1_N00209 CMOSN  
+ L=.18u  
+ W=.18u         
M_FLASH_FFD13_NAND1_M2         FLASH_FFD13_NAND1_N00209 FLASH_N09782 0 0 CMOSN 
+  
+ L=.18u  
+ W=.18u         
M_FLASH_FFD13_NAND1_M3         FLASH_FFD13_N00861 FLASH_FFD13_Y N01357 N01357
+  CMOSP  
+ L=.18u  
+ W=.2u         
M_FLASH_FFD13_NAND1_M4         FLASH_FFD13_N00861 FLASH_N09782 N01357 N01357
+  CMOSP  
+ L=.18u  
+ W=.2u         
R_FLASH_FFD13_NAND1_R1         FLASH_FFD13_Y 0  10Meg  
R_FLASH_FFD13_NAND1_R2         FLASH_N09782 0  10Meg  
M_FLASH_FFD13_NAND3_M1         FLASH_Q13 FLASH_FFD13_X FLASH_FFD13_NAND3_N00209
+  FLASH_FFD13_NAND3_N00209 CMOSN  
+ L=.18u  
+ W=.18u         
M_FLASH_FFD13_NAND3_M2         FLASH_FFD13_NAND3_N00209 FLASH_N094500 0 0 CMOSN
+   
+ L=.18u  
+ W=.18u         
M_FLASH_FFD13_NAND3_M3         FLASH_Q13 FLASH_FFD13_X N01357 N01357 CMOSP  
+ L=.18u  
+ W=.2u         
M_FLASH_FFD13_NAND3_M4         FLASH_Q13 FLASH_N094500 N01357 N01357 CMOSP  
+ L=.18u  
+ W=.2u         
R_FLASH_FFD13_NAND3_R1         FLASH_FFD13_X 0  10Meg  
R_FLASH_FFD13_NAND3_R2         FLASH_N094500 0  10Meg  
M_FLASH_FFD13_NAND2_M1         FLASH_FFD13_X FLASH_FFD13_N00589
+  FLASH_FFD13_NAND2_N00209 FLASH_FFD13_NAND2_N00209 CMOSN  
+ L=.18u  
+ W=.18u         
M_FLASH_FFD13_NAND2_M2         FLASH_FFD13_NAND2_N00209 N03388 0 0 CMOSN  
+ L=.18u  
+ W=.18u         
M_FLASH_FFD13_NAND2_M3         FLASH_FFD13_X FLASH_FFD13_N00589 N01357 N01357
+  CMOSP  
+ L=.18u  
+ W=.2u         
M_FLASH_FFD13_NAND2_M4         FLASH_FFD13_X N03388 N01357 N01357 CMOSP  
+ L=.18u  
+ W=.2u         
R_FLASH_FFD13_NAND2_R1         FLASH_FFD13_N00589 0  10Meg  
R_FLASH_FFD13_NAND2_R2         N03388 0  10Meg  
M_FLASH_FFD13_NAND4_M1         FLASH_N094500 FLASH_Q13 FLASH_FFD13_NAND4_N00209
+  FLASH_FFD13_NAND4_N00209 CMOSN  
+ L=.18u  
+ W=.18u         
M_FLASH_FFD13_NAND4_M2         FLASH_FFD13_NAND4_N00209 FLASH_FFD13_Y 0 0 CMOSN
+   
+ L=.18u  
+ W=.18u         
M_FLASH_FFD13_NAND4_M3         FLASH_N094500 FLASH_Q13 N01357 N01357 CMOSP  
+ L=.18u  
+ W=.2u         
M_FLASH_FFD13_NAND4_M4         FLASH_N094500 FLASH_FFD13_Y N01357 N01357 CMOSP 
+  
+ L=.18u  
+ W=.2u         
R_FLASH_FFD13_NAND4_R1         FLASH_Q13 0  10Meg  
R_FLASH_FFD13_NAND4_R2         FLASH_FFD13_Y 0  10Meg  
M_FLASH_C9_M4         FLASH_C9_N26867 FLASH_C9_N27085 N01357 N01357 CMOSP  
+ L=.2u  
+ W=.6u         
M_FLASH_C9_M5         FLASH_C9_N27149 N03836 0 0 CMOSN  
+ L=.2u  
+ W=.6u         
M_FLASH_C9_M6         FLASH_N09748 FLASH_C9_N26867 N01357 N01357 CMOSP  
+ L=.2u  
+ W=.8u         
M_FLASH_C9_M7         FLASH_N09748 N03836 0 0 CMOSN  
+ L=.2u  
+ W=.4u         
M_FLASH_C9_M1         FLASH_C9_N27085 N14031 FLASH_C9_N27149 0 CMOSN  
+ L=.2u  
+ W=.4u         
M_FLASH_C9_M2         FLASH_C9_N26867 C9 FLASH_C9_N27149 0 CMOSN  
+ L=.2u  
+ W=.4u         
M_FLASH_C9_M3         FLASH_C9_N27085 FLASH_C9_N27085 N01357 N01357 CMOSP  
+ L=.2u  
+ W=.6u         
C_FLASH_FFD5_C3         0 FLASH_FFD5_Y  10p  
M_FLASH_FFD5_NAND_M1         FLASH_FFD5_N00589 FLASH_FFD5_N00861
+  FLASH_FFD5_NAND_N00209 FLASH_FFD5_NAND_N00209 CMOSN  
+ L=.18u  
+ W=.18u         
M_FLASH_FFD5_NAND_M2         FLASH_FFD5_NAND_N00209 FLASH_FFD5_X 0 0 CMOSN  
+ L=.18u  
+ W=.18u         
M_FLASH_FFD5_NAND_M3         FLASH_FFD5_N00589 FLASH_FFD5_N00861 N01357 N01357
+  CMOSP  
+ L=.18u  
+ W=.2u         
M_FLASH_FFD5_NAND_M4         FLASH_FFD5_N00589 FLASH_FFD5_X N01357 N01357 CMOSP
+   
+ L=.18u  
+ W=.2u         
R_FLASH_FFD5_NAND_R1         FLASH_FFD5_N00861 0  10Meg  
R_FLASH_FFD5_NAND_R2         FLASH_FFD5_X 0  10Meg  
M_FLASH_FFD5_NAND-3_M2         FLASH_FFD5_NAND-3_N05674 N03388
+  FLASH_FFD5_NAND-3_N05700 FLASH_FFD5_NAND-3_N05700 CMOSN  
+ L=.18u  
+ W=.18u         
M_FLASH_FFD5_NAND-3_M3         FLASH_FFD5_Y FLASH_FFD5_X N01357 N01357 CMOSP  
+ L=.18u  
+ W=.2u         
M_FLASH_FFD5_NAND-3_M5         FLASH_FFD5_Y FLASH_FFD5_N00861 N01357 N01357
+  CMOSP  
+ L=.18u  
+ W=.2u         
M_FLASH_FFD5_NAND-3_M4         FLASH_FFD5_Y N03388 N01357 N01357 CMOSP  
+ L=.18u  
+ W=.2u         
M_FLASH_FFD5_NAND-3_M6         FLASH_FFD5_NAND-3_N05700 FLASH_FFD5_N00861 0 0
+  CMOSN  
+ L=.18u  
+ W=.18u         
M_FLASH_FFD5_NAND-3_M1         FLASH_FFD5_Y FLASH_FFD5_X
+  FLASH_FFD5_NAND-3_N05674 FLASH_FFD5_NAND-3_N05674 CMOSN  
+ L=.18u  
+ W=.18u         
M_FLASH_FFD5_NAND1_M1         FLASH_FFD5_N00861 FLASH_FFD5_Y
+  FLASH_FFD5_NAND1_N00209 FLASH_FFD5_NAND1_N00209 CMOSN  
+ L=.18u  
+ W=.18u         
M_FLASH_FFD5_NAND1_M2         FLASH_FFD5_NAND1_N00209 FLASH_N05296 0 0 CMOSN  
+ L=.18u  
+ W=.18u         
M_FLASH_FFD5_NAND1_M3         FLASH_FFD5_N00861 FLASH_FFD5_Y N01357 N01357
+  CMOSP  
+ L=.18u  
+ W=.2u         
M_FLASH_FFD5_NAND1_M4         FLASH_FFD5_N00861 FLASH_N05296 N01357 N01357
+  CMOSP  
+ L=.18u  
+ W=.2u         
R_FLASH_FFD5_NAND1_R1         FLASH_FFD5_Y 0  10Meg  
R_FLASH_FFD5_NAND1_R2         FLASH_N05296 0  10Meg  
M_FLASH_FFD5_NAND3_M1         FLASH_Q5 FLASH_FFD5_X FLASH_FFD5_NAND3_N00209
+  FLASH_FFD5_NAND3_N00209 CMOSN  
+ L=.18u  
+ W=.18u         
M_FLASH_FFD5_NAND3_M2         FLASH_FFD5_NAND3_N00209 FLASH_N012620 0 0 CMOSN  
+ L=.18u  
+ W=.18u         
M_FLASH_FFD5_NAND3_M3         FLASH_Q5 FLASH_FFD5_X N01357 N01357 CMOSP  
+ L=.18u  
+ W=.2u         
M_FLASH_FFD5_NAND3_M4         FLASH_Q5 FLASH_N012620 N01357 N01357 CMOSP  
+ L=.18u  
+ W=.2u         
R_FLASH_FFD5_NAND3_R1         FLASH_FFD5_X 0  10Meg  
R_FLASH_FFD5_NAND3_R2         FLASH_N012620 0  10Meg  
M_FLASH_FFD5_NAND2_M1         FLASH_FFD5_X FLASH_FFD5_N00589
+  FLASH_FFD5_NAND2_N00209 FLASH_FFD5_NAND2_N00209 CMOSN  
+ L=.18u  
+ W=.18u         
M_FLASH_FFD5_NAND2_M2         FLASH_FFD5_NAND2_N00209 N03388 0 0 CMOSN  
+ L=.18u  
+ W=.18u         
M_FLASH_FFD5_NAND2_M3         FLASH_FFD5_X FLASH_FFD5_N00589 N01357 N01357
+  CMOSP  
+ L=.18u  
+ W=.2u         
M_FLASH_FFD5_NAND2_M4         FLASH_FFD5_X N03388 N01357 N01357 CMOSP  
+ L=.18u  
+ W=.2u         
R_FLASH_FFD5_NAND2_R1         FLASH_FFD5_N00589 0  10Meg  
R_FLASH_FFD5_NAND2_R2         N03388 0  10Meg  
M_FLASH_FFD5_NAND4_M1         FLASH_N012620 FLASH_Q5 FLASH_FFD5_NAND4_N00209
+  FLASH_FFD5_NAND4_N00209 CMOSN  
+ L=.18u  
+ W=.18u         
M_FLASH_FFD5_NAND4_M2         FLASH_FFD5_NAND4_N00209 FLASH_FFD5_Y 0 0 CMOSN  
+ L=.18u  
+ W=.18u         
M_FLASH_FFD5_NAND4_M3         FLASH_N012620 FLASH_Q5 N01357 N01357 CMOSP  
+ L=.18u  
+ W=.2u         
M_FLASH_FFD5_NAND4_M4         FLASH_N012620 FLASH_FFD5_Y N01357 N01357 CMOSP  
+ L=.18u  
+ W=.2u         
R_FLASH_FFD5_NAND4_R1         FLASH_Q5 0  10Meg  
R_FLASH_FFD5_NAND4_R2         FLASH_FFD5_Y 0  10Meg  
M_FLASH_C8_M4         FLASH_C8_N26867 FLASH_C8_N27085 N01357 N01357 CMOSP  
+ L=.2u  
+ W=.6u         
M_FLASH_C8_M5         FLASH_C8_N27149 N03836 0 0 CMOSN  
+ L=.2u  
+ W=.6u         
M_FLASH_C8_M6         FLASH_N01400 FLASH_C8_N26867 N01357 N01357 CMOSP  
+ L=.2u  
+ W=.8u         
M_FLASH_C8_M7         FLASH_N01400 N03836 0 0 CMOSN  
+ L=.2u  
+ W=.4u         
M_FLASH_C8_M1         FLASH_C8_N27085 N14031 FLASH_C8_N27149 0 CMOSN  
+ L=.2u  
+ W=.4u         
M_FLASH_C8_M2         FLASH_C8_N26867 C8 FLASH_C8_N27149 0 CMOSN  
+ L=.2u  
+ W=.4u         
M_FLASH_C8_M3         FLASH_C8_N27085 FLASH_C8_N27085 N01357 N01357 CMOSP  
+ L=.2u  
+ W=.6u         
C_FLASH_FFD14_C3         0 FLASH_FFD14_Y  10p  
M_FLASH_FFD14_NAND_M1         FLASH_FFD14_N00589 FLASH_FFD14_N00861
+  FLASH_FFD14_NAND_N00209 FLASH_FFD14_NAND_N00209 CMOSN  
+ L=.18u  
+ W=.18u         
M_FLASH_FFD14_NAND_M2         FLASH_FFD14_NAND_N00209 FLASH_FFD14_X 0 0 CMOSN  
+ L=.18u  
+ W=.18u         
M_FLASH_FFD14_NAND_M3         FLASH_FFD14_N00589 FLASH_FFD14_N00861 N01357
+  N01357 CMOSP  
+ L=.18u  
+ W=.2u         
M_FLASH_FFD14_NAND_M4         FLASH_FFD14_N00589 FLASH_FFD14_X N01357 N01357
+  CMOSP  
+ L=.18u  
+ W=.2u         
R_FLASH_FFD14_NAND_R1         FLASH_FFD14_N00861 0  10Meg  
R_FLASH_FFD14_NAND_R2         FLASH_FFD14_X 0  10Meg  
M_FLASH_FFD14_NAND-3_M2         FLASH_FFD14_NAND-3_N05674 N03388
+  FLASH_FFD14_NAND-3_N05700 FLASH_FFD14_NAND-3_N05700 CMOSN  
+ L=.18u  
+ W=.18u         
M_FLASH_FFD14_NAND-3_M3         FLASH_FFD14_Y FLASH_FFD14_X N01357 N01357 CMOSP
+   
+ L=.18u  
+ W=.2u         
M_FLASH_FFD14_NAND-3_M5         FLASH_FFD14_Y FLASH_FFD14_N00861 N01357 N01357
+  CMOSP  
+ L=.18u  
+ W=.2u         
M_FLASH_FFD14_NAND-3_M4         FLASH_FFD14_Y N03388 N01357 N01357 CMOSP  
+ L=.18u  
+ W=.2u         
M_FLASH_FFD14_NAND-3_M6         FLASH_FFD14_NAND-3_N05700 FLASH_FFD14_N00861 0
+  0 CMOSN  
+ L=.18u  
+ W=.18u         
M_FLASH_FFD14_NAND-3_M1         FLASH_FFD14_Y FLASH_FFD14_X
+  FLASH_FFD14_NAND-3_N05674 FLASH_FFD14_NAND-3_N05674 CMOSN  
+ L=.18u  
+ W=.18u         
M_FLASH_FFD14_NAND1_M1         FLASH_FFD14_N00861 FLASH_FFD14_Y
+  FLASH_FFD14_NAND1_N00209 FLASH_FFD14_NAND1_N00209 CMOSN  
+ L=.18u  
+ W=.18u         
M_FLASH_FFD14_NAND1_M2         FLASH_FFD14_NAND1_N00209 FLASH_N09524 0 0 CMOSN 
+  
+ L=.18u  
+ W=.18u         
M_FLASH_FFD14_NAND1_M3         FLASH_FFD14_N00861 FLASH_FFD14_Y N01357 N01357
+  CMOSP  
+ L=.18u  
+ W=.2u         
M_FLASH_FFD14_NAND1_M4         FLASH_FFD14_N00861 FLASH_N09524 N01357 N01357
+  CMOSP  
+ L=.18u  
+ W=.2u         
R_FLASH_FFD14_NAND1_R1         FLASH_FFD14_Y 0  10Meg  
R_FLASH_FFD14_NAND1_R2         FLASH_N09524 0  10Meg  
M_FLASH_FFD14_NAND3_M1         FLASH_Q14 FLASH_FFD14_X FLASH_FFD14_NAND3_N00209
+  FLASH_FFD14_NAND3_N00209 CMOSN  
+ L=.18u  
+ W=.18u         
M_FLASH_FFD14_NAND3_M2         FLASH_FFD14_NAND3_N00209 FLASH_-Q14 0 0 CMOSN  
+ L=.18u  
+ W=.18u         
M_FLASH_FFD14_NAND3_M3         FLASH_Q14 FLASH_FFD14_X N01357 N01357 CMOSP  
+ L=.18u  
+ W=.2u         
M_FLASH_FFD14_NAND3_M4         FLASH_Q14 FLASH_-Q14 N01357 N01357 CMOSP  
+ L=.18u  
+ W=.2u         
R_FLASH_FFD14_NAND3_R1         FLASH_FFD14_X 0  10Meg  
R_FLASH_FFD14_NAND3_R2         FLASH_-Q14 0  10Meg  
M_FLASH_FFD14_NAND2_M1         FLASH_FFD14_X FLASH_FFD14_N00589
+  FLASH_FFD14_NAND2_N00209 FLASH_FFD14_NAND2_N00209 CMOSN  
+ L=.18u  
+ W=.18u         
M_FLASH_FFD14_NAND2_M2         FLASH_FFD14_NAND2_N00209 N03388 0 0 CMOSN  
+ L=.18u  
+ W=.18u         
M_FLASH_FFD14_NAND2_M3         FLASH_FFD14_X FLASH_FFD14_N00589 N01357 N01357
+  CMOSP  
+ L=.18u  
+ W=.2u         
M_FLASH_FFD14_NAND2_M4         FLASH_FFD14_X N03388 N01357 N01357 CMOSP  
+ L=.18u  
+ W=.2u         
R_FLASH_FFD14_NAND2_R1         FLASH_FFD14_N00589 0  10Meg  
R_FLASH_FFD14_NAND2_R2         N03388 0  10Meg  
M_FLASH_FFD14_NAND4_M1         FLASH_-Q14 FLASH_Q14 FLASH_FFD14_NAND4_N00209
+  FLASH_FFD14_NAND4_N00209 CMOSN  
+ L=.18u  
+ W=.18u         
M_FLASH_FFD14_NAND4_M2         FLASH_FFD14_NAND4_N00209 FLASH_FFD14_Y 0 0 CMOSN
+   
+ L=.18u  
+ W=.18u         
M_FLASH_FFD14_NAND4_M3         FLASH_-Q14 FLASH_Q14 N01357 N01357 CMOSP  
+ L=.18u  
+ W=.2u         
M_FLASH_FFD14_NAND4_M4         FLASH_-Q14 FLASH_FFD14_Y N01357 N01357 CMOSP  
+ L=.18u  
+ W=.2u         
R_FLASH_FFD14_NAND4_R1         FLASH_Q14 0  10Meg  
R_FLASH_FFD14_NAND4_R2         FLASH_FFD14_Y 0  10Meg  
M_FLASH_C10_M4         FLASH_C10_N26867 FLASH_C10_N27085 N01357 N01357 CMOSP  
+ L=.2u  
+ W=.6u         
M_FLASH_C10_M5         FLASH_C10_N27149 N03836 0 0 CMOSN  
+ L=.2u  
+ W=.6u         
M_FLASH_C10_M6         FLASH_N09532 FLASH_C10_N26867 N01357 N01357 CMOSP  
+ L=.2u  
+ W=.8u         
M_FLASH_C10_M7         FLASH_N09532 N03836 0 0 CMOSN  
+ L=.2u  
+ W=.4u         
M_FLASH_C10_M1         FLASH_C10_N27085 N14031 FLASH_C10_N27149 0 CMOSN  
+ L=.2u  
+ W=.4u         
M_FLASH_C10_M2         FLASH_C10_N26867 C10 FLASH_C10_N27149 0 CMOSN  
+ L=.2u  
+ W=.4u         
M_FLASH_C10_M3         FLASH_C10_N27085 FLASH_C10_N27085 N01357 N01357 CMOSP  
+ L=.2u  
+ W=.6u         
R_FLASH_R1         FLASH_N013450 0  1Meg  
M_FLASH_C2_M4         FLASH_C2_N26867 FLASH_C2_N27085 N01357 N01357 CMOSP  
+ L=.2u  
+ W=.6u         
M_FLASH_C2_M5         FLASH_C2_N27149 N03836 0 0 CMOSN  
+ L=.2u  
+ W=.6u         
M_FLASH_C2_M6         FLASH_N01460 FLASH_C2_N26867 N01357 N01357 CMOSP  
+ L=.2u  
+ W=.8u         
M_FLASH_C2_M7         FLASH_N01460 N03836 0 0 CMOSN  
+ L=.2u  
+ W=.4u         
M_FLASH_C2_M1         FLASH_C2_N27085 N14031 FLASH_C2_N27149 0 CMOSN  
+ L=.2u  
+ W=.4u         
M_FLASH_C2_M2         FLASH_C2_N26867 C2 FLASH_C2_N27149 0 CMOSN  
+ L=.2u  
+ W=.4u         
M_FLASH_C2_M3         FLASH_C2_N27085 FLASH_C2_N27085 N01357 N01357 CMOSP  
+ L=.2u  
+ W=.6u         
C_FLASH_FFD15_C3         0 FLASH_FFD15_Y  10p  
M_FLASH_FFD15_NAND_M1         FLASH_FFD15_N00589 FLASH_FFD15_N00861
+  FLASH_FFD15_NAND_N00209 FLASH_FFD15_NAND_N00209 CMOSN  
+ L=.18u  
+ W=.18u         
M_FLASH_FFD15_NAND_M2         FLASH_FFD15_NAND_N00209 FLASH_FFD15_X 0 0 CMOSN  
+ L=.18u  
+ W=.18u         
M_FLASH_FFD15_NAND_M3         FLASH_FFD15_N00589 FLASH_FFD15_N00861 N01357
+  N01357 CMOSP  
+ L=.18u  
+ W=.2u         
M_FLASH_FFD15_NAND_M4         FLASH_FFD15_N00589 FLASH_FFD15_X N01357 N01357
+  CMOSP  
+ L=.18u  
+ W=.2u         
R_FLASH_FFD15_NAND_R1         FLASH_FFD15_N00861 0  10Meg  
R_FLASH_FFD15_NAND_R2         FLASH_FFD15_X 0  10Meg  
M_FLASH_FFD15_NAND-3_M2         FLASH_FFD15_NAND-3_N05674 N03388
+  FLASH_FFD15_NAND-3_N05700 FLASH_FFD15_NAND-3_N05700 CMOSN  
+ L=.18u  
+ W=.18u         
M_FLASH_FFD15_NAND-3_M3         FLASH_FFD15_Y FLASH_FFD15_X N01357 N01357 CMOSP
+   
+ L=.18u  
+ W=.2u         
M_FLASH_FFD15_NAND-3_M5         FLASH_FFD15_Y FLASH_FFD15_N00861 N01357 N01357
+  CMOSP  
+ L=.18u  
+ W=.2u         
M_FLASH_FFD15_NAND-3_M4         FLASH_FFD15_Y N03388 N01357 N01357 CMOSP  
+ L=.18u  
+ W=.2u         
M_FLASH_FFD15_NAND-3_M6         FLASH_FFD15_NAND-3_N05700 FLASH_FFD15_N00861 0
+  0 CMOSN  
+ L=.18u  
+ W=.18u         
M_FLASH_FFD15_NAND-3_M1         FLASH_FFD15_Y FLASH_FFD15_X
+  FLASH_FFD15_NAND-3_N05674 FLASH_FFD15_NAND-3_N05674 CMOSN  
+ L=.18u  
+ W=.18u         
M_FLASH_FFD15_NAND1_M1         FLASH_FFD15_N00861 FLASH_FFD15_Y
+  FLASH_FFD15_NAND1_N00209 FLASH_FFD15_NAND1_N00209 CMOSN  
+ L=.18u  
+ W=.18u         
M_FLASH_FFD15_NAND1_M2         FLASH_FFD15_NAND1_N00209 FLASH_N09520 0 0 CMOSN 
+  
+ L=.18u  
+ W=.18u         
M_FLASH_FFD15_NAND1_M3         FLASH_FFD15_N00861 FLASH_FFD15_Y N01357 N01357
+  CMOSP  
+ L=.18u  
+ W=.2u         
M_FLASH_FFD15_NAND1_M4         FLASH_FFD15_N00861 FLASH_N09520 N01357 N01357
+  CMOSP  
+ L=.18u  
+ W=.2u         
R_FLASH_FFD15_NAND1_R1         FLASH_FFD15_Y 0  10Meg  
R_FLASH_FFD15_NAND1_R2         FLASH_N09520 0  10Meg  
M_FLASH_FFD15_NAND3_M1         FLASH_Q15 FLASH_FFD15_X FLASH_FFD15_NAND3_N00209
+  FLASH_FFD15_NAND3_N00209 CMOSN  
+ L=.18u  
+ W=.18u         
M_FLASH_FFD15_NAND3_M2         FLASH_FFD15_NAND3_N00209 FLASH_N094900 0 0 CMOSN
+   
+ L=.18u  
+ W=.18u         
M_FLASH_FFD15_NAND3_M3         FLASH_Q15 FLASH_FFD15_X N01357 N01357 CMOSP  
+ L=.18u  
+ W=.2u         
M_FLASH_FFD15_NAND3_M4         FLASH_Q15 FLASH_N094900 N01357 N01357 CMOSP  
+ L=.18u  
+ W=.2u         
R_FLASH_FFD15_NAND3_R1         FLASH_FFD15_X 0  10Meg  
R_FLASH_FFD15_NAND3_R2         FLASH_N094900 0  10Meg  
M_FLASH_FFD15_NAND2_M1         FLASH_FFD15_X FLASH_FFD15_N00589
+  FLASH_FFD15_NAND2_N00209 FLASH_FFD15_NAND2_N00209 CMOSN  
+ L=.18u  
+ W=.18u         
M_FLASH_FFD15_NAND2_M2         FLASH_FFD15_NAND2_N00209 N03388 0 0 CMOSN  
+ L=.18u  
+ W=.18u         
M_FLASH_FFD15_NAND2_M3         FLASH_FFD15_X FLASH_FFD15_N00589 N01357 N01357
+  CMOSP  
+ L=.18u  
+ W=.2u         
M_FLASH_FFD15_NAND2_M4         FLASH_FFD15_X N03388 N01357 N01357 CMOSP  
+ L=.18u  
+ W=.2u         
R_FLASH_FFD15_NAND2_R1         FLASH_FFD15_N00589 0  10Meg  
R_FLASH_FFD15_NAND2_R2         N03388 0  10Meg  
M_FLASH_FFD15_NAND4_M1         FLASH_N094900 FLASH_Q15 FLASH_FFD15_NAND4_N00209
+  FLASH_FFD15_NAND4_N00209 CMOSN  
+ L=.18u  
+ W=.18u         
M_FLASH_FFD15_NAND4_M2         FLASH_FFD15_NAND4_N00209 FLASH_FFD15_Y 0 0 CMOSN
+   
+ L=.18u  
+ W=.18u         
M_FLASH_FFD15_NAND4_M3         FLASH_N094900 FLASH_Q15 N01357 N01357 CMOSP  
+ L=.18u  
+ W=.2u         
M_FLASH_FFD15_NAND4_M4         FLASH_N094900 FLASH_FFD15_Y N01357 N01357 CMOSP 
+  
+ L=.18u  
+ W=.2u         
R_FLASH_FFD15_NAND4_R1         FLASH_Q15 0  10Meg  
R_FLASH_FFD15_NAND4_R2         FLASH_FFD15_Y 0  10Meg  
M_FLASH_C11_M4         FLASH_C11_N26867 FLASH_C11_N27085 N01357 N01357 CMOSP  
+ L=.2u  
+ W=.6u         
M_FLASH_C11_M5         FLASH_C11_N27149 N03836 0 0 CMOSN  
+ L=.2u  
+ W=.6u         
M_FLASH_C11_M6         FLASH_N09528 FLASH_C11_N26867 N01357 N01357 CMOSP  
+ L=.2u  
+ W=.8u         
M_FLASH_C11_M7         FLASH_N09528 N03836 0 0 CMOSN  
+ L=.2u  
+ W=.4u         
M_FLASH_C11_M1         FLASH_C11_N27085 N14031 FLASH_C11_N27149 0 CMOSN  
+ L=.2u  
+ W=.4u         
M_FLASH_C11_M2         FLASH_C11_N26867 C11 FLASH_C11_N27149 0 CMOSN  
+ L=.2u  
+ W=.4u         
M_FLASH_C11_M3         FLASH_C11_N27085 FLASH_C11_N27085 N01357 N01357 CMOSP  
+ L=.2u  
+ W=.6u         
C_FLASH_FFD6_C3         0 FLASH_FFD6_Y  10p  
M_FLASH_FFD6_NAND_M1         FLASH_FFD6_N00589 FLASH_FFD6_N00861
+  FLASH_FFD6_NAND_N00209 FLASH_FFD6_NAND_N00209 CMOSN  
+ L=.18u  
+ W=.18u         
M_FLASH_FFD6_NAND_M2         FLASH_FFD6_NAND_N00209 FLASH_FFD6_X 0 0 CMOSN  
+ L=.18u  
+ W=.18u         
M_FLASH_FFD6_NAND_M3         FLASH_FFD6_N00589 FLASH_FFD6_N00861 N01357 N01357
+  CMOSP  
+ L=.18u  
+ W=.2u         
M_FLASH_FFD6_NAND_M4         FLASH_FFD6_N00589 FLASH_FFD6_X N01357 N01357 CMOSP
+   
+ L=.18u  
+ W=.2u         
R_FLASH_FFD6_NAND_R1         FLASH_FFD6_N00861 0  10Meg  
R_FLASH_FFD6_NAND_R2         FLASH_FFD6_X 0  10Meg  
M_FLASH_FFD6_NAND-3_M2         FLASH_FFD6_NAND-3_N05674 N03388
+  FLASH_FFD6_NAND-3_N05700 FLASH_FFD6_NAND-3_N05700 CMOSN  
+ L=.18u  
+ W=.18u         
M_FLASH_FFD6_NAND-3_M3         FLASH_FFD6_Y FLASH_FFD6_X N01357 N01357 CMOSP  
+ L=.18u  
+ W=.2u         
M_FLASH_FFD6_NAND-3_M5         FLASH_FFD6_Y FLASH_FFD6_N00861 N01357 N01357
+  CMOSP  
+ L=.18u  
+ W=.2u         
M_FLASH_FFD6_NAND-3_M4         FLASH_FFD6_Y N03388 N01357 N01357 CMOSP  
+ L=.18u  
+ W=.2u         
M_FLASH_FFD6_NAND-3_M6         FLASH_FFD6_NAND-3_N05700 FLASH_FFD6_N00861 0 0
+  CMOSN  
+ L=.18u  
+ W=.18u         
M_FLASH_FFD6_NAND-3_M1         FLASH_FFD6_Y FLASH_FFD6_X
+  FLASH_FFD6_NAND-3_N05674 FLASH_FFD6_NAND-3_N05674 CMOSN  
+ L=.18u  
+ W=.18u         
M_FLASH_FFD6_NAND1_M1         FLASH_FFD6_N00861 FLASH_FFD6_Y
+  FLASH_FFD6_NAND1_N00209 FLASH_FFD6_NAND1_N00209 CMOSN  
+ L=.18u  
+ W=.18u         
M_FLASH_FFD6_NAND1_M2         FLASH_FFD6_NAND1_N00209 FLASH_N01420 0 0 CMOSN  
+ L=.18u  
+ W=.18u         
M_FLASH_FFD6_NAND1_M3         FLASH_FFD6_N00861 FLASH_FFD6_Y N01357 N01357
+  CMOSP  
+ L=.18u  
+ W=.2u         
M_FLASH_FFD6_NAND1_M4         FLASH_FFD6_N00861 FLASH_N01420 N01357 N01357
+  CMOSP  
+ L=.18u  
+ W=.2u         
R_FLASH_FFD6_NAND1_R1         FLASH_FFD6_Y 0  10Meg  
R_FLASH_FFD6_NAND1_R2         FLASH_N01420 0  10Meg  
M_FLASH_FFD6_NAND3_M1         FLASH_Q6 FLASH_FFD6_X FLASH_FFD6_NAND3_N00209
+  FLASH_FFD6_NAND3_N00209 CMOSN  
+ L=.18u  
+ W=.18u         
M_FLASH_FFD6_NAND3_M2         FLASH_FFD6_NAND3_N00209 FLASH_-Q6 0 0 CMOSN  
+ L=.18u  
+ W=.18u         
M_FLASH_FFD6_NAND3_M3         FLASH_Q6 FLASH_FFD6_X N01357 N01357 CMOSP  
+ L=.18u  
+ W=.2u         
M_FLASH_FFD6_NAND3_M4         FLASH_Q6 FLASH_-Q6 N01357 N01357 CMOSP  
+ L=.18u  
+ W=.2u         
R_FLASH_FFD6_NAND3_R1         FLASH_FFD6_X 0  10Meg  
R_FLASH_FFD6_NAND3_R2         FLASH_-Q6 0  10Meg  
M_FLASH_FFD6_NAND2_M1         FLASH_FFD6_X FLASH_FFD6_N00589
+  FLASH_FFD6_NAND2_N00209 FLASH_FFD6_NAND2_N00209 CMOSN  
+ L=.18u  
+ W=.18u         
M_FLASH_FFD6_NAND2_M2         FLASH_FFD6_NAND2_N00209 N03388 0 0 CMOSN  
+ L=.18u  
+ W=.18u         
M_FLASH_FFD6_NAND2_M3         FLASH_FFD6_X FLASH_FFD6_N00589 N01357 N01357
+  CMOSP  
+ L=.18u  
+ W=.2u         
M_FLASH_FFD6_NAND2_M4         FLASH_FFD6_X N03388 N01357 N01357 CMOSP  
+ L=.18u  
+ W=.2u         
R_FLASH_FFD6_NAND2_R1         FLASH_FFD6_N00589 0  10Meg  
R_FLASH_FFD6_NAND2_R2         N03388 0  10Meg  
M_FLASH_FFD6_NAND4_M1         FLASH_-Q6 FLASH_Q6 FLASH_FFD6_NAND4_N00209
+  FLASH_FFD6_NAND4_N00209 CMOSN  
+ L=.18u  
+ W=.18u         
M_FLASH_FFD6_NAND4_M2         FLASH_FFD6_NAND4_N00209 FLASH_FFD6_Y 0 0 CMOSN  
+ L=.18u  
+ W=.18u         
M_FLASH_FFD6_NAND4_M3         FLASH_-Q6 FLASH_Q6 N01357 N01357 CMOSP  
+ L=.18u  
+ W=.2u         
M_FLASH_FFD6_NAND4_M4         FLASH_-Q6 FLASH_FFD6_Y N01357 N01357 CMOSP  
+ L=.18u  
+ W=.2u         
R_FLASH_FFD6_NAND4_R1         FLASH_Q6 0  10Meg  
R_FLASH_FFD6_NAND4_R2         FLASH_FFD6_Y 0  10Meg  
M_FLASH_C12_M4         FLASH_C12_N26867 FLASH_C12_N27085 N01357 N01357 CMOSP  
+ L=.2u  
+ W=.6u         
M_FLASH_C12_M5         FLASH_C12_N27149 N03836 0 0 CMOSN  
+ L=.2u  
+ W=.6u         
M_FLASH_C12_M6         FLASH_N09726 FLASH_C12_N26867 N01357 N01357 CMOSP  
+ L=.2u  
+ W=.8u         
M_FLASH_C12_M7         FLASH_N09726 N03836 0 0 CMOSN  
+ L=.2u  
+ W=.4u         
M_FLASH_C12_M1         FLASH_C12_N27085 N14031 FLASH_C12_N27149 0 CMOSN  
+ L=.2u  
+ W=.4u         
M_FLASH_C12_M2         FLASH_C12_N26867 C12 FLASH_C12_N27149 0 CMOSN  
+ L=.2u  
+ W=.4u         
M_FLASH_C12_M3         FLASH_C12_N27085 FLASH_C12_N27085 N01357 N01357 CMOSP  
+ L=.2u  
+ W=.6u         
M_FLASH_C3_M4         FLASH_C3_N26867 FLASH_C3_N27085 N01357 N01357 CMOSP  
+ L=.2u  
+ W=.6u         
M_FLASH_C3_M5         FLASH_C3_N27149 N03836 0 0 CMOSN  
+ L=.2u  
+ W=.6u         
M_FLASH_C3_M6         FLASH_N01450 FLASH_C3_N26867 N01357 N01357 CMOSP  
+ L=.2u  
+ W=.8u         
M_FLASH_C3_M7         FLASH_N01450 N03836 0 0 CMOSN  
+ L=.2u  
+ W=.4u         
M_FLASH_C3_M1         FLASH_C3_N27085 N14031 FLASH_C3_N27149 0 CMOSN  
+ L=.2u  
+ W=.4u         
M_FLASH_C3_M2         FLASH_C3_N26867 C3 FLASH_C3_N27149 0 CMOSN  
+ L=.2u  
+ W=.4u         
M_FLASH_C3_M3         FLASH_C3_N27085 FLASH_C3_N27085 N01357 N01357 CMOSP  
+ L=.2u  
+ W=.6u         
M_FLASH_C13_M4         FLASH_C13_N26867 FLASH_C13_N27085 N01357 N01357 CMOSP  
+ L=.2u  
+ W=.6u         
M_FLASH_C13_M5         FLASH_C13_N27149 N03836 0 0 CMOSN  
+ L=.2u  
+ W=.6u         
M_FLASH_C13_M6         FLASH_N09782 FLASH_C13_N26867 N01357 N01357 CMOSP  
+ L=.2u  
+ W=.8u         
M_FLASH_C13_M7         FLASH_N09782 N03836 0 0 CMOSN  
+ L=.2u  
+ W=.4u         
M_FLASH_C13_M1         FLASH_C13_N27085 N14031 FLASH_C13_N27149 0 CMOSN  
+ L=.2u  
+ W=.4u         
M_FLASH_C13_M2         FLASH_C13_N26867 C13 FLASH_C13_N27149 0 CMOSN  
+ L=.2u  
+ W=.4u         
M_FLASH_C13_M3         FLASH_C13_N27085 FLASH_C13_N27085 N01357 N01357 CMOSP  
+ L=.2u  
+ W=.6u         
C_FLASH_FFD7_C3         0 FLASH_FFD7_Y  10p  
M_FLASH_FFD7_NAND_M1         FLASH_FFD7_N00589 FLASH_FFD7_N00861
+  FLASH_FFD7_NAND_N00209 FLASH_FFD7_NAND_N00209 CMOSN  
+ L=.18u  
+ W=.18u         
M_FLASH_FFD7_NAND_M2         FLASH_FFD7_NAND_N00209 FLASH_FFD7_X 0 0 CMOSN  
+ L=.18u  
+ W=.18u         
M_FLASH_FFD7_NAND_M3         FLASH_FFD7_N00589 FLASH_FFD7_N00861 N01357 N01357
+  CMOSP  
+ L=.18u  
+ W=.2u         
M_FLASH_FFD7_NAND_M4         FLASH_FFD7_N00589 FLASH_FFD7_X N01357 N01357 CMOSP
+   
+ L=.18u  
+ W=.2u         
R_FLASH_FFD7_NAND_R1         FLASH_FFD7_N00861 0  10Meg  
R_FLASH_FFD7_NAND_R2         FLASH_FFD7_X 0  10Meg  
M_FLASH_FFD7_NAND-3_M2         FLASH_FFD7_NAND-3_N05674 N03388
+  FLASH_FFD7_NAND-3_N05700 FLASH_FFD7_NAND-3_N05700 CMOSN  
+ L=.18u  
+ W=.18u         
M_FLASH_FFD7_NAND-3_M3         FLASH_FFD7_Y FLASH_FFD7_X N01357 N01357 CMOSP  
+ L=.18u  
+ W=.2u         
M_FLASH_FFD7_NAND-3_M5         FLASH_FFD7_Y FLASH_FFD7_N00861 N01357 N01357
+  CMOSP  
+ L=.18u  
+ W=.2u         
M_FLASH_FFD7_NAND-3_M4         FLASH_FFD7_Y N03388 N01357 N01357 CMOSP  
+ L=.18u  
+ W=.2u         
M_FLASH_FFD7_NAND-3_M6         FLASH_FFD7_NAND-3_N05700 FLASH_FFD7_N00861 0 0
+  CMOSN  
+ L=.18u  
+ W=.18u         
M_FLASH_FFD7_NAND-3_M1         FLASH_FFD7_Y FLASH_FFD7_X
+  FLASH_FFD7_NAND-3_N05674 FLASH_FFD7_NAND-3_N05674 CMOSN  
+ L=.18u  
+ W=.18u         
M_FLASH_FFD7_NAND1_M1         FLASH_FFD7_N00861 FLASH_FFD7_Y
+  FLASH_FFD7_NAND1_N00209 FLASH_FFD7_NAND1_N00209 CMOSN  
+ L=.18u  
+ W=.18u         
M_FLASH_FFD7_NAND1_M2         FLASH_FFD7_NAND1_N00209 FLASH_N01410 0 0 CMOSN  
+ L=.18u  
+ W=.18u         
M_FLASH_FFD7_NAND1_M3         FLASH_FFD7_N00861 FLASH_FFD7_Y N01357 N01357
+  CMOSP  
+ L=.18u  
+ W=.2u         
M_FLASH_FFD7_NAND1_M4         FLASH_FFD7_N00861 FLASH_N01410 N01357 N01357
+  CMOSP  
+ L=.18u  
+ W=.2u         
R_FLASH_FFD7_NAND1_R1         FLASH_FFD7_Y 0  10Meg  
R_FLASH_FFD7_NAND1_R2         FLASH_N01410 0  10Meg  
M_FLASH_FFD7_NAND3_M1         FLASH_Q7 FLASH_FFD7_X FLASH_FFD7_NAND3_N00209
+  FLASH_FFD7_NAND3_N00209 CMOSN  
+ L=.18u  
+ W=.18u         
M_FLASH_FFD7_NAND3_M2         FLASH_FFD7_NAND3_N00209 FLASH_N013450 0 0 CMOSN  
+ L=.18u  
+ W=.18u         
M_FLASH_FFD7_NAND3_M3         FLASH_Q7 FLASH_FFD7_X N01357 N01357 CMOSP  
+ L=.18u  
+ W=.2u         
M_FLASH_FFD7_NAND3_M4         FLASH_Q7 FLASH_N013450 N01357 N01357 CMOSP  
+ L=.18u  
+ W=.2u         
R_FLASH_FFD7_NAND3_R1         FLASH_FFD7_X 0  10Meg  
R_FLASH_FFD7_NAND3_R2         FLASH_N013450 0  10Meg  
M_FLASH_FFD7_NAND2_M1         FLASH_FFD7_X FLASH_FFD7_N00589
+  FLASH_FFD7_NAND2_N00209 FLASH_FFD7_NAND2_N00209 CMOSN  
+ L=.18u  
+ W=.18u         
M_FLASH_FFD7_NAND2_M2         FLASH_FFD7_NAND2_N00209 N03388 0 0 CMOSN  
+ L=.18u  
+ W=.18u         
M_FLASH_FFD7_NAND2_M3         FLASH_FFD7_X FLASH_FFD7_N00589 N01357 N01357
+  CMOSP  
+ L=.18u  
+ W=.2u         
M_FLASH_FFD7_NAND2_M4         FLASH_FFD7_X N03388 N01357 N01357 CMOSP  
+ L=.18u  
+ W=.2u         
R_FLASH_FFD7_NAND2_R1         FLASH_FFD7_N00589 0  10Meg  
R_FLASH_FFD7_NAND2_R2         N03388 0  10Meg  
M_FLASH_FFD7_NAND4_M1         FLASH_N013450 FLASH_Q7 FLASH_FFD7_NAND4_N00209
+  FLASH_FFD7_NAND4_N00209 CMOSN  
+ L=.18u  
+ W=.18u         
M_FLASH_FFD7_NAND4_M2         FLASH_FFD7_NAND4_N00209 FLASH_FFD7_Y 0 0 CMOSN  
+ L=.18u  
+ W=.18u         
M_FLASH_FFD7_NAND4_M3         FLASH_N013450 FLASH_Q7 N01357 N01357 CMOSP  
+ L=.18u  
+ W=.2u         
M_FLASH_FFD7_NAND4_M4         FLASH_N013450 FLASH_FFD7_Y N01357 N01357 CMOSP  
+ L=.18u  
+ W=.2u         
R_FLASH_FFD7_NAND4_R1         FLASH_Q7 0  10Meg  
R_FLASH_FFD7_NAND4_R2         FLASH_FFD7_Y 0  10Meg  
C_FLASH_FFD1_C3         0 FLASH_FFD1_Y  10p  
M_FLASH_FFD1_NAND_M1         FLASH_FFD1_N00589 FLASH_FFD1_N00861
+  FLASH_FFD1_NAND_N00209 FLASH_FFD1_NAND_N00209 CMOSN  
+ L=.18u  
+ W=.18u         
M_FLASH_FFD1_NAND_M2         FLASH_FFD1_NAND_N00209 FLASH_FFD1_X 0 0 CMOSN  
+ L=.18u  
+ W=.18u         
M_FLASH_FFD1_NAND_M3         FLASH_FFD1_N00589 FLASH_FFD1_N00861 N01357 N01357
+  CMOSP  
+ L=.18u  
+ W=.2u         
M_FLASH_FFD1_NAND_M4         FLASH_FFD1_N00589 FLASH_FFD1_X N01357 N01357 CMOSP
+   
+ L=.18u  
+ W=.2u         
R_FLASH_FFD1_NAND_R1         FLASH_FFD1_N00861 0  10Meg  
R_FLASH_FFD1_NAND_R2         FLASH_FFD1_X 0  10Meg  
M_FLASH_FFD1_NAND-3_M2         FLASH_FFD1_NAND-3_N05674 N03388
+  FLASH_FFD1_NAND-3_N05700 FLASH_FFD1_NAND-3_N05700 CMOSN  
+ L=.18u  
+ W=.18u         
M_FLASH_FFD1_NAND-3_M3         FLASH_FFD1_Y FLASH_FFD1_X N01357 N01357 CMOSP  
+ L=.18u  
+ W=.2u         
M_FLASH_FFD1_NAND-3_M5         FLASH_FFD1_Y FLASH_FFD1_N00861 N01357 N01357
+  CMOSP  
+ L=.18u  
+ W=.2u         
M_FLASH_FFD1_NAND-3_M4         FLASH_FFD1_Y N03388 N01357 N01357 CMOSP  
+ L=.18u  
+ W=.2u         
M_FLASH_FFD1_NAND-3_M6         FLASH_FFD1_NAND-3_N05700 FLASH_FFD1_N00861 0 0
+  CMOSN  
+ L=.18u  
+ W=.18u         
M_FLASH_FFD1_NAND-3_M1         FLASH_FFD1_Y FLASH_FFD1_X
+  FLASH_FFD1_NAND-3_N05674 FLASH_FFD1_NAND-3_N05674 CMOSN  
+ L=.18u  
+ W=.18u         
M_FLASH_FFD1_NAND1_M1         FLASH_FFD1_N00861 FLASH_FFD1_Y
+  FLASH_FFD1_NAND1_N00209 FLASH_FFD1_NAND1_N00209 CMOSN  
+ L=.18u  
+ W=.18u         
M_FLASH_FFD1_NAND1_M2         FLASH_FFD1_NAND1_N00209 FLASH_N03795 0 0 CMOSN  
+ L=.18u  
+ W=.18u         
M_FLASH_FFD1_NAND1_M3         FLASH_FFD1_N00861 FLASH_FFD1_Y N01357 N01357
+  CMOSP  
+ L=.18u  
+ W=.2u         
M_FLASH_FFD1_NAND1_M4         FLASH_FFD1_N00861 FLASH_N03795 N01357 N01357
+  CMOSP  
+ L=.18u  
+ W=.2u         
R_FLASH_FFD1_NAND1_R1         FLASH_FFD1_Y 0  10Meg  
R_FLASH_FFD1_NAND1_R2         FLASH_N03795 0  10Meg  
M_FLASH_FFD1_NAND3_M1         FLASH_Q1 FLASH_FFD1_X FLASH_FFD1_NAND3_N00209
+  FLASH_FFD1_NAND3_N00209 CMOSN  
+ L=.18u  
+ W=.18u         
M_FLASH_FFD1_NAND3_M2         FLASH_FFD1_NAND3_N00209 FLASH_N011060 0 0 CMOSN  
+ L=.18u  
+ W=.18u         
M_FLASH_FFD1_NAND3_M3         FLASH_Q1 FLASH_FFD1_X N01357 N01357 CMOSP  
+ L=.18u  
+ W=.2u         
M_FLASH_FFD1_NAND3_M4         FLASH_Q1 FLASH_N011060 N01357 N01357 CMOSP  
+ L=.18u  
+ W=.2u         
R_FLASH_FFD1_NAND3_R1         FLASH_FFD1_X 0  10Meg  
R_FLASH_FFD1_NAND3_R2         FLASH_N011060 0  10Meg  
M_FLASH_FFD1_NAND2_M1         FLASH_FFD1_X FLASH_FFD1_N00589
+  FLASH_FFD1_NAND2_N00209 FLASH_FFD1_NAND2_N00209 CMOSN  
+ L=.18u  
+ W=.18u         
M_FLASH_FFD1_NAND2_M2         FLASH_FFD1_NAND2_N00209 N03388 0 0 CMOSN  
+ L=.18u  
+ W=.18u         
M_FLASH_FFD1_NAND2_M3         FLASH_FFD1_X FLASH_FFD1_N00589 N01357 N01357
+  CMOSP  
+ L=.18u  
+ W=.2u         
M_FLASH_FFD1_NAND2_M4         FLASH_FFD1_X N03388 N01357 N01357 CMOSP  
+ L=.18u  
+ W=.2u         
R_FLASH_FFD1_NAND2_R1         FLASH_FFD1_N00589 0  10Meg  
R_FLASH_FFD1_NAND2_R2         N03388 0  10Meg  
M_FLASH_FFD1_NAND4_M1         FLASH_N011060 FLASH_Q1 FLASH_FFD1_NAND4_N00209
+  FLASH_FFD1_NAND4_N00209 CMOSN  
+ L=.18u  
+ W=.18u         
M_FLASH_FFD1_NAND4_M2         FLASH_FFD1_NAND4_N00209 FLASH_FFD1_Y 0 0 CMOSN  
+ L=.18u  
+ W=.18u         
M_FLASH_FFD1_NAND4_M3         FLASH_N011060 FLASH_Q1 N01357 N01357 CMOSP  
+ L=.18u  
+ W=.2u         
M_FLASH_FFD1_NAND4_M4         FLASH_N011060 FLASH_FFD1_Y N01357 N01357 CMOSP  
+ L=.18u  
+ W=.2u         
R_FLASH_FFD1_NAND4_R1         FLASH_Q1 0  10Meg  
R_FLASH_FFD1_NAND4_R2         FLASH_FFD1_Y 0  10Meg  
M_FLASH_C14_M4         FLASH_C14_N26867 FLASH_C14_N27085 N01357 N01357 CMOSP  
+ L=.2u  
+ W=.6u         
M_FLASH_C14_M5         FLASH_C14_N27149 N03836 0 0 CMOSN  
+ L=.2u  
+ W=.6u         
M_FLASH_C14_M6         FLASH_N09524 FLASH_C14_N26867 N01357 N01357 CMOSP  
+ L=.2u  
+ W=.8u         
M_FLASH_C14_M7         FLASH_N09524 N03836 0 0 CMOSN  
+ L=.2u  
+ W=.4u         
M_FLASH_C14_M1         FLASH_C14_N27085 N14031 FLASH_C14_N27149 0 CMOSN  
+ L=.2u  
+ W=.4u         
M_FLASH_C14_M2         FLASH_C14_N26867 C14 FLASH_C14_N27149 0 CMOSN  
+ L=.2u  
+ W=.4u         
M_FLASH_C14_M3         FLASH_C14_N27085 FLASH_C14_N27085 N01357 N01357 CMOSP  
+ L=.2u  
+ W=.6u         
M_FLASH_C4_M4         FLASH_C4_N26867 FLASH_C4_N27085 N01357 N01357 CMOSP  
+ L=.2u  
+ W=.6u         
M_FLASH_C4_M5         FLASH_C4_N27149 N03836 0 0 CMOSN  
+ L=.2u  
+ W=.6u         
M_FLASH_C4_M6         FLASH_N03459 FLASH_C4_N26867 N01357 N01357 CMOSP  
+ L=.2u  
+ W=.8u         
M_FLASH_C4_M7         FLASH_N03459 N03836 0 0 CMOSN  
+ L=.2u  
+ W=.4u         
M_FLASH_C4_M1         FLASH_C4_N27085 N14031 FLASH_C4_N27149 0 CMOSN  
+ L=.2u  
+ W=.4u         
M_FLASH_C4_M2         FLASH_C4_N26867 C4 FLASH_C4_N27149 0 CMOSN  
+ L=.2u  
+ W=.4u         
M_FLASH_C4_M3         FLASH_C4_N27085 FLASH_C4_N27085 N01357 N01357 CMOSP  
+ L=.2u  
+ W=.6u         
M_FLASH_C15_M4         FLASH_C15_N26867 FLASH_C15_N27085 N01357 N01357 CMOSP  
+ L=.2u  
+ W=.6u         
M_FLASH_C15_M5         FLASH_C15_N27149 N03836 0 0 CMOSN  
+ L=.2u  
+ W=.6u         
M_FLASH_C15_M6         FLASH_N09520 FLASH_C15_N26867 N01357 N01357 CMOSP  
+ L=.2u  
+ W=.8u         
M_FLASH_C15_M7         FLASH_N09520 N03836 0 0 CMOSN  
+ L=.2u  
+ W=.4u         
M_FLASH_C15_M1         FLASH_C15_N27085 N14031 FLASH_C15_N27149 0 CMOSN  
+ L=.2u  
+ W=.4u         
M_FLASH_C15_M2         FLASH_C15_N26867 C15 FLASH_C15_N27149 0 CMOSN  
+ L=.2u  
+ W=.4u         
M_FLASH_C15_M3         FLASH_C15_N27085 FLASH_C15_N27085 N01357 N01357 CMOSP  
+ L=.2u  
+ W=.6u         
R_FLASH_R8         FLASH_N094900 0  1Meg  
R_FLASH_R7         FLASH_N094500 0  1Meg  
R_FLASH_R6         FLASH_N094100 0  1Meg  
C_FLASH_FFD2_C3         0 FLASH_FFD2_Y  10p  
M_FLASH_FFD2_NAND_M1         FLASH_FFD2_N00589 FLASH_FFD2_N00861
+  FLASH_FFD2_NAND_N00209 FLASH_FFD2_NAND_N00209 CMOSN  
+ L=.18u  
+ W=.18u         
M_FLASH_FFD2_NAND_M2         FLASH_FFD2_NAND_N00209 FLASH_FFD2_X 0 0 CMOSN  
+ L=.18u  
+ W=.18u         
M_FLASH_FFD2_NAND_M3         FLASH_FFD2_N00589 FLASH_FFD2_N00861 N01357 N01357
+  CMOSP  
+ L=.18u  
+ W=.2u         
M_FLASH_FFD2_NAND_M4         FLASH_FFD2_N00589 FLASH_FFD2_X N01357 N01357 CMOSP
+   
+ L=.18u  
+ W=.2u         
R_FLASH_FFD2_NAND_R1         FLASH_FFD2_N00861 0  10Meg  
R_FLASH_FFD2_NAND_R2         FLASH_FFD2_X 0  10Meg  
M_FLASH_FFD2_NAND-3_M2         FLASH_FFD2_NAND-3_N05674 N03388
+  FLASH_FFD2_NAND-3_N05700 FLASH_FFD2_NAND-3_N05700 CMOSN  
+ L=.18u  
+ W=.18u         
M_FLASH_FFD2_NAND-3_M3         FLASH_FFD2_Y FLASH_FFD2_X N01357 N01357 CMOSP  
+ L=.18u  
+ W=.2u         
M_FLASH_FFD2_NAND-3_M5         FLASH_FFD2_Y FLASH_FFD2_N00861 N01357 N01357
+  CMOSP  
+ L=.18u  
+ W=.2u         
M_FLASH_FFD2_NAND-3_M4         FLASH_FFD2_Y N03388 N01357 N01357 CMOSP  
+ L=.18u  
+ W=.2u         
M_FLASH_FFD2_NAND-3_M6         FLASH_FFD2_NAND-3_N05700 FLASH_FFD2_N00861 0 0
+  CMOSN  
+ L=.18u  
+ W=.18u         
M_FLASH_FFD2_NAND-3_M1         FLASH_FFD2_Y FLASH_FFD2_X
+  FLASH_FFD2_NAND-3_N05674 FLASH_FFD2_NAND-3_N05674 CMOSN  
+ L=.18u  
+ W=.18u         
M_FLASH_FFD2_NAND1_M1         FLASH_FFD2_N00861 FLASH_FFD2_Y
+  FLASH_FFD2_NAND1_N00209 FLASH_FFD2_NAND1_N00209 CMOSN  
+ L=.18u  
+ W=.18u         
M_FLASH_FFD2_NAND1_M2         FLASH_FFD2_NAND1_N00209 FLASH_N01460 0 0 CMOSN  
+ L=.18u  
+ W=.18u         
M_FLASH_FFD2_NAND1_M3         FLASH_FFD2_N00861 FLASH_FFD2_Y N01357 N01357
+  CMOSP  
+ L=.18u  
+ W=.2u         
M_FLASH_FFD2_NAND1_M4         FLASH_FFD2_N00861 FLASH_N01460 N01357 N01357
+  CMOSP  
+ L=.18u  
+ W=.2u         
R_FLASH_FFD2_NAND1_R1         FLASH_FFD2_Y 0  10Meg  
R_FLASH_FFD2_NAND1_R2         FLASH_N01460 0  10Meg  
M_FLASH_FFD2_NAND3_M1         FLASH_Q2 FLASH_FFD2_X FLASH_FFD2_NAND3_N00209
+  FLASH_FFD2_NAND3_N00209 CMOSN  
+ L=.18u  
+ W=.18u         
M_FLASH_FFD2_NAND3_M2         FLASH_FFD2_NAND3_N00209 FLASH_-Q2 0 0 CMOSN  
+ L=.18u  
+ W=.18u         
M_FLASH_FFD2_NAND3_M3         FLASH_Q2 FLASH_FFD2_X N01357 N01357 CMOSP  
+ L=.18u  
+ W=.2u         
M_FLASH_FFD2_NAND3_M4         FLASH_Q2 FLASH_-Q2 N01357 N01357 CMOSP  
+ L=.18u  
+ W=.2u         
R_FLASH_FFD2_NAND3_R1         FLASH_FFD2_X 0  10Meg  
R_FLASH_FFD2_NAND3_R2         FLASH_-Q2 0  10Meg  
M_FLASH_FFD2_NAND2_M1         FLASH_FFD2_X FLASH_FFD2_N00589
+  FLASH_FFD2_NAND2_N00209 FLASH_FFD2_NAND2_N00209 CMOSN  
+ L=.18u  
+ W=.18u         
M_FLASH_FFD2_NAND2_M2         FLASH_FFD2_NAND2_N00209 N03388 0 0 CMOSN  
+ L=.18u  
+ W=.18u         
M_FLASH_FFD2_NAND2_M3         FLASH_FFD2_X FLASH_FFD2_N00589 N01357 N01357
+  CMOSP  
+ L=.18u  
+ W=.2u         
M_FLASH_FFD2_NAND2_M4         FLASH_FFD2_X N03388 N01357 N01357 CMOSP  
+ L=.18u  
+ W=.2u         
R_FLASH_FFD2_NAND2_R1         FLASH_FFD2_N00589 0  10Meg  
R_FLASH_FFD2_NAND2_R2         N03388 0  10Meg  
M_FLASH_FFD2_NAND4_M1         FLASH_-Q2 FLASH_Q2 FLASH_FFD2_NAND4_N00209
+  FLASH_FFD2_NAND4_N00209 CMOSN  
+ L=.18u  
+ W=.18u         
M_FLASH_FFD2_NAND4_M2         FLASH_FFD2_NAND4_N00209 FLASH_FFD2_Y 0 0 CMOSN  
+ L=.18u  
+ W=.18u         
M_FLASH_FFD2_NAND4_M3         FLASH_-Q2 FLASH_Q2 N01357 N01357 CMOSP  
+ L=.18u  
+ W=.2u         
M_FLASH_FFD2_NAND4_M4         FLASH_-Q2 FLASH_FFD2_Y N01357 N01357 CMOSP  
+ L=.18u  
+ W=.2u         
R_FLASH_FFD2_NAND4_R1         FLASH_Q2 0  10Meg  
R_FLASH_FFD2_NAND4_R2         FLASH_FFD2_Y 0  10Meg  
C_FLASH_FFD8_C3         0 FLASH_FFD8_Y  10p  
M_FLASH_FFD8_NAND_M1         FLASH_FFD8_N00589 FLASH_FFD8_N00861
+  FLASH_FFD8_NAND_N00209 FLASH_FFD8_NAND_N00209 CMOSN  
+ L=.18u  
+ W=.18u         
M_FLASH_FFD8_NAND_M2         FLASH_FFD8_NAND_N00209 FLASH_FFD8_X 0 0 CMOSN  
+ L=.18u  
+ W=.18u         
M_FLASH_FFD8_NAND_M3         FLASH_FFD8_N00589 FLASH_FFD8_N00861 N01357 N01357
+  CMOSP  
+ L=.18u  
+ W=.2u         
M_FLASH_FFD8_NAND_M4         FLASH_FFD8_N00589 FLASH_FFD8_X N01357 N01357 CMOSP
+   
+ L=.18u  
+ W=.2u         
R_FLASH_FFD8_NAND_R1         FLASH_FFD8_N00861 0  10Meg  
R_FLASH_FFD8_NAND_R2         FLASH_FFD8_X 0  10Meg  
M_FLASH_FFD8_NAND-3_M2         FLASH_FFD8_NAND-3_N05674 N03388
+  FLASH_FFD8_NAND-3_N05700 FLASH_FFD8_NAND-3_N05700 CMOSN  
+ L=.18u  
+ W=.18u         
M_FLASH_FFD8_NAND-3_M3         FLASH_FFD8_Y FLASH_FFD8_X N01357 N01357 CMOSP  
+ L=.18u  
+ W=.2u         
M_FLASH_FFD8_NAND-3_M5         FLASH_FFD8_Y FLASH_FFD8_N00861 N01357 N01357
+  CMOSP  
+ L=.18u  
+ W=.2u         
M_FLASH_FFD8_NAND-3_M4         FLASH_FFD8_Y N03388 N01357 N01357 CMOSP  
+ L=.18u  
+ W=.2u         
M_FLASH_FFD8_NAND-3_M6         FLASH_FFD8_NAND-3_N05700 FLASH_FFD8_N00861 0 0
+  CMOSN  
+ L=.18u  
+ W=.18u         
M_FLASH_FFD8_NAND-3_M1         FLASH_FFD8_Y FLASH_FFD8_X
+  FLASH_FFD8_NAND-3_N05674 FLASH_FFD8_NAND-3_N05674 CMOSN  
+ L=.18u  
+ W=.18u         
M_FLASH_FFD8_NAND1_M1         FLASH_FFD8_N00861 FLASH_FFD8_Y
+  FLASH_FFD8_NAND1_N00209 FLASH_FFD8_NAND1_N00209 CMOSN  
+ L=.18u  
+ W=.18u         
M_FLASH_FFD8_NAND1_M2         FLASH_FFD8_NAND1_N00209 FLASH_N01400 0 0 CMOSN  
+ L=.18u  
+ W=.18u         
M_FLASH_FFD8_NAND1_M3         FLASH_FFD8_N00861 FLASH_FFD8_Y N01357 N01357
+  CMOSP  
+ L=.18u  
+ W=.2u         
M_FLASH_FFD8_NAND1_M4         FLASH_FFD8_N00861 FLASH_N01400 N01357 N01357
+  CMOSP  
+ L=.18u  
+ W=.2u         
R_FLASH_FFD8_NAND1_R1         FLASH_FFD8_Y 0  10Meg  
R_FLASH_FFD8_NAND1_R2         FLASH_N01400 0  10Meg  
M_FLASH_FFD8_NAND3_M1         FLASH_Q8 FLASH_FFD8_X FLASH_FFD8_NAND3_N00209
+  FLASH_FFD8_NAND3_N00209 CMOSN  
+ L=.18u  
+ W=.18u         
M_FLASH_FFD8_NAND3_M2         FLASH_FFD8_NAND3_N00209 FLASH_-Q8 0 0 CMOSN  
+ L=.18u  
+ W=.18u         
M_FLASH_FFD8_NAND3_M3         FLASH_Q8 FLASH_FFD8_X N01357 N01357 CMOSP  
+ L=.18u  
+ W=.2u         
M_FLASH_FFD8_NAND3_M4         FLASH_Q8 FLASH_-Q8 N01357 N01357 CMOSP  
+ L=.18u  
+ W=.2u         
R_FLASH_FFD8_NAND3_R1         FLASH_FFD8_X 0  10Meg  
R_FLASH_FFD8_NAND3_R2         FLASH_-Q8 0  10Meg  
M_FLASH_FFD8_NAND2_M1         FLASH_FFD8_X FLASH_FFD8_N00589
+  FLASH_FFD8_NAND2_N00209 FLASH_FFD8_NAND2_N00209 CMOSN  
+ L=.18u  
+ W=.18u         
M_FLASH_FFD8_NAND2_M2         FLASH_FFD8_NAND2_N00209 N03388 0 0 CMOSN  
+ L=.18u  
+ W=.18u         
M_FLASH_FFD8_NAND2_M3         FLASH_FFD8_X FLASH_FFD8_N00589 N01357 N01357
+  CMOSP  
+ L=.18u  
+ W=.2u         
M_FLASH_FFD8_NAND2_M4         FLASH_FFD8_X N03388 N01357 N01357 CMOSP  
+ L=.18u  
+ W=.2u         
R_FLASH_FFD8_NAND2_R1         FLASH_FFD8_N00589 0  10Meg  
R_FLASH_FFD8_NAND2_R2         N03388 0  10Meg  
M_FLASH_FFD8_NAND4_M1         FLASH_-Q8 FLASH_Q8 FLASH_FFD8_NAND4_N00209
+  FLASH_FFD8_NAND4_N00209 CMOSN  
+ L=.18u  
+ W=.18u         
M_FLASH_FFD8_NAND4_M2         FLASH_FFD8_NAND4_N00209 FLASH_FFD8_Y 0 0 CMOSN  
+ L=.18u  
+ W=.18u         
M_FLASH_FFD8_NAND4_M3         FLASH_-Q8 FLASH_Q8 N01357 N01357 CMOSP  
+ L=.18u  
+ W=.2u         
M_FLASH_FFD8_NAND4_M4         FLASH_-Q8 FLASH_FFD8_Y N01357 N01357 CMOSP  
+ L=.18u  
+ W=.2u         
R_FLASH_FFD8_NAND4_R1         FLASH_Q8 0  10Meg  
R_FLASH_FFD8_NAND4_R2         FLASH_FFD8_Y 0  10Meg  
R_FLASH_R5         FLASH_N093700 0  1Meg  
R_FLASH_R4         FLASH_N011060 0  1Meg  
M_FLASH_C5_M4         FLASH_C5_N26867 FLASH_C5_N27085 N01357 N01357 CMOSP  
+ L=.2u  
+ W=.6u         
M_FLASH_C5_M5         FLASH_C5_N27149 N03836 0 0 CMOSN  
+ L=.2u  
+ W=.6u         
M_FLASH_C5_M6         FLASH_N05296 FLASH_C5_N26867 N01357 N01357 CMOSP  
+ L=.2u  
+ W=.8u         
M_FLASH_C5_M7         FLASH_N05296 N03836 0 0 CMOSN  
+ L=.2u  
+ W=.4u         
M_FLASH_C5_M1         FLASH_C5_N27085 N14031 FLASH_C5_N27149 0 CMOSN  
+ L=.2u  
+ W=.4u         
M_FLASH_C5_M2         FLASH_C5_N26867 C5 FLASH_C5_N27149 0 CMOSN  
+ L=.2u  
+ W=.4u         
M_FLASH_C5_M3         FLASH_C5_N27085 FLASH_C5_N27085 N01357 N01357 CMOSP  
+ L=.2u  
+ W=.6u         
R_FLASH_U10_R2         FLASH_U10_N10574 MSB  1  
M_FLASH_U10_NAND_M2         FLASH_U10_NAND_N27813 FLASH_Q15 0 0 CMOSN  
+ L=.18u  
+ W=.18u         
M_FLASH_U10_NAND_M4         FLASH_U10_N00277 FLASH_Q15 N01357 N01357 CMOSP  
+ L=.18u  
+ W=.2u         
R_FLASH_U10_NAND_R1         0 FLASH_-Q14  10Meg  
R_FLASH_U10_NAND_R2         0 FLASH_Q15  10Meg  
M_FLASH_U10_NAND_M5         FLASH_U10_N00277 FLASH_-Q14 N01357 N01357 CMOSP  
+ L=.18u  
+ W=.2u         
M_FLASH_U10_NAND_M6         FLASH_U10_N00277 FLASH_-Q14 FLASH_U10_NAND_N27813 0
+  CMOSN  
+ L=.18u  
+ W=.18u         
M_FLASH_U10_NAND7_M2         FLASH_U10_NAND7_N27813 FLASH_Q6 0 0 CMOSN  
+ L=.18u  
+ W=.18u         
M_FLASH_U10_NAND7_M4         FLASH_U10_N05416 FLASH_Q6 N01357 N01357 CMOSP  
+ L=.18u  
+ W=.2u         
R_FLASH_U10_NAND7_R1         0 FLASH_-Q4  10Meg  
R_FLASH_U10_NAND7_R2         0 FLASH_Q6  10Meg  
M_FLASH_U10_NAND7_M5         FLASH_U10_N05416 FLASH_-Q4 N01357 N01357 CMOSP  
+ L=.18u  
+ W=.2u         
M_FLASH_U10_NAND7_M6         FLASH_U10_N05416 FLASH_-Q4 FLASH_U10_NAND7_N27813
+  0 CMOSN  
+ L=.18u  
+ W=.18u         
M_FLASH_U10_NAND10_M2         FLASH_U10_NAND10_N27813 FLASH_Q12 0 0 CMOSN  
+ L=.18u  
+ W=.18u         
M_FLASH_U10_NAND10_M4         FLASH_U10_N05842 FLASH_Q12 N01357 N01357 CMOSP  
+ L=.18u  
+ W=.2u         
R_FLASH_U10_NAND10_R1         0 FLASH_-Q8  10Meg  
R_FLASH_U10_NAND10_R2         0 FLASH_Q12  10Meg  
M_FLASH_U10_NAND10_M5         FLASH_U10_N05842 FLASH_-Q8 N01357 N01357 CMOSP  
+ L=.18u  
+ W=.2u         
M_FLASH_U10_NAND10_M6         FLASH_U10_N05842 FLASH_-Q8
+  FLASH_U10_NAND10_N27813 0 CMOSN  
+ L=.18u  
+ W=.18u         
M_FLASH_U10_NAND4_M2         FLASH_U10_NAND4_N27813 FLASH_Q7 0 0 CMOSN  
+ L=.18u  
+ W=.18u         
M_FLASH_U10_NAND4_M4         FLASH_U10_N00437 FLASH_Q7 N01357 N01357 CMOSP  
+ L=.18u  
+ W=.2u         
R_FLASH_U10_NAND4_R1         0 FLASH_-Q6  10Meg  
R_FLASH_U10_NAND4_R2         0 FLASH_Q7  10Meg  
M_FLASH_U10_NAND4_M5         FLASH_U10_N00437 FLASH_-Q6 N01357 N01357 CMOSP  
+ L=.18u  
+ W=.2u         
M_FLASH_U10_NAND4_M6         FLASH_U10_N00437 FLASH_-Q6 FLASH_U10_NAND4_N27813
+  0 CMOSN  
+ L=.18u  
+ W=.18u         
R_FLASH_U10_R3         0 FLASH_U10_N10574  10Meg  
M_FLASH_U10_NAND1_M2         FLASH_U10_NAND1_N27813 FLASH_Q13 0 0 CMOSN  
+ L=.18u  
+ W=.18u         
M_FLASH_U10_NAND1_M4         FLASH_U10_N00293 FLASH_Q13 N01357 N01357 CMOSP  
+ L=.18u  
+ W=.2u         
R_FLASH_U10_NAND1_R1         0 FLASH_-Q12  10Meg  
R_FLASH_U10_NAND1_R2         0 FLASH_Q13  10Meg  
M_FLASH_U10_NAND1_M5         FLASH_U10_N00293 FLASH_-Q12 N01357 N01357 CMOSP  
+ L=.18u  
+ W=.2u         
M_FLASH_U10_NAND1_M6         FLASH_U10_N00293 FLASH_-Q12 FLASH_U10_NAND1_N27813
+  0 CMOSN  
+ L=.18u  
+ W=.18u         
R_FLASH_U10_INVERSOR2_R1         0 FLASH_Q4  10Meg  
M_FLASH_U10_INVERSOR2_M5         FLASH_U10_N21342 FLASH_Q4 N01357 N01357 CMOSP 
+  
+ L=.18u  
+ W=.2u         
M_FLASH_U10_INVERSOR2_M6         FLASH_U10_N21342 FLASH_Q4 0 0 CMOSN  
+ L=.18u  
+ W=.18u         
M_FLASH_U10_NAND8_M2         FLASH_U10_NAND8_N27813 FLASH_Q10 0 0 CMOSN  
+ L=.18u  
+ W=.18u         
M_FLASH_U10_NAND8_M4         FLASH_U10_N05692 FLASH_Q10 N01357 N01357 CMOSP  
+ L=.18u  
+ W=.2u         
R_FLASH_U10_NAND8_R1         0 FLASH_-Q8  10Meg  
R_FLASH_U10_NAND8_R2         0 FLASH_Q10  10Meg  
M_FLASH_U10_NAND8_M5         FLASH_U10_N05692 FLASH_-Q8 N01357 N01357 CMOSP  
+ L=.18u  
+ W=.2u         
M_FLASH_U10_NAND8_M6         FLASH_U10_N05692 FLASH_-Q8 FLASH_U10_NAND8_N27813
+  0 CMOSN  
+ L=.18u  
+ W=.18u         
M_FLASH_U10_NAND11_M2         FLASH_U10_NAND11_N27813 FLASH_U10_N05842 0 0
+  CMOSN  
+ L=.18u  
+ W=.18u         
M_FLASH_U10_NAND11_M4         3SB FLASH_U10_N05842 N01357 N01357 CMOSP  
+ L=.18u  
+ W=.2u         
R_FLASH_U10_NAND11_R1         0 FLASH_U10_N21342  10Meg  
R_FLASH_U10_NAND11_R2         0 FLASH_U10_N05842  10Meg  
M_FLASH_U10_NAND11_M5         3SB FLASH_U10_N21342 N01357 N01357 CMOSP  
+ L=.18u  
+ W=.2u         
M_FLASH_U10_NAND11_M6         3SB FLASH_U10_N21342 FLASH_U10_NAND11_N27813 0
+  CMOSN  
+ L=.18u  
+ W=.18u         
M_FLASH_U10_NAND5_M2         FLASH_U10_NAND5_N27813 FLASH_Q5 0 0 CMOSN  
+ L=.18u  
+ W=.18u         
M_FLASH_U10_NAND5_M4         FLASH_U10_N00389 FLASH_Q5 N01357 N01357 CMOSP  
+ L=.18u  
+ W=.2u         
R_FLASH_U10_NAND5_R1         0 FLASH_-Q4  10Meg  
R_FLASH_U10_NAND5_R2         0 FLASH_Q5  10Meg  
M_FLASH_U10_NAND5_M5         FLASH_U10_N00389 FLASH_-Q4 N01357 N01357 CMOSP  
+ L=.18u  
+ W=.2u         
M_FLASH_U10_NAND5_M6         FLASH_U10_N00389 FLASH_-Q4 FLASH_U10_NAND5_N27813
+  0 CMOSN  
+ L=.18u  
+ W=.18u         
R_FLASH_U10_INVERSOR1_R1         0 FLASH_Q2  10Meg  
M_FLASH_U10_INVERSOR1_M5         FLASH_U10_N05351 FLASH_Q2 N01357 N01357 CMOSP 
+  
+ L=.18u  
+ W=.2u         
M_FLASH_U10_INVERSOR1_M6         FLASH_U10_N05351 FLASH_Q2 0 0 CMOSN  
+ L=.18u  
+ W=.18u         
R_FLASH_U10_INVERSOR_R1         0 FLASH_Q1  10Meg  
M_FLASH_U10_INVERSOR_M5         FLASH_U10_N00653 FLASH_Q1 N01357 N01357 CMOSP  
+ L=.18u  
+ W=.2u         
M_FLASH_U10_INVERSOR_M6         FLASH_U10_N00653 FLASH_Q1 0 0 CMOSN  
+ L=.18u  
+ W=.18u         
R_FLASH_U10_R1         FLASH_Q8 FLASH_U10_N10574  1  
M_FLASH_U10_NAND2_M2         FLASH_U10_NAND2_N27813 FLASH_Q11 0 0 CMOSN  
+ L=.18u  
+ W=.18u         
M_FLASH_U10_NAND2_M4         FLASH_U10_N00317 FLASH_Q11 N01357 N01357 CMOSP  
+ L=.18u  
+ W=.2u         
R_FLASH_U10_NAND2_R1         0 FLASH_-Q10  10Meg  
R_FLASH_U10_NAND2_R2         0 FLASH_Q11  10Meg  
M_FLASH_U10_NAND2_M5         FLASH_U10_N00317 FLASH_-Q10 N01357 N01357 CMOSP  
+ L=.18u  
+ W=.2u         
M_FLASH_U10_NAND2_M6         FLASH_U10_N00317 FLASH_-Q10 FLASH_U10_NAND2_N27813
+  0 CMOSN  
+ L=.18u  
+ W=.18u         
M_FLASH_U10_NAND-4_M7         FLASH_U10_NAND-4_N35977 FLASH_U10_N05550 0 0
+  CMOSN  
+ L=.18u  
+ W=.18u         
M_FLASH_U10_NAND-4_M5         2SB FLASH_U10_N05692 N01357 N01357 CMOSP  
+ L=.18u  
+ W=.2u         
M_FLASH_U10_NAND-4_M1         2SB FLASH_U10_N05351 FLASH_U10_NAND-4_N35641 0
+  CMOSN  
+ L=.18u  
+ W=.18u         
R_FLASH_U10_NAND-4_R4         FLASH_U10_N05550 0  10Meg  
M_FLASH_U10_NAND-4_M6         FLASH_U10_NAND-4_N35937 FLASH_U10_N05692
+  FLASH_U10_NAND-4_N35977 0 CMOSN  
+ L=.18u  
+ W=.18u         
M_FLASH_U10_NAND-4_M2         FLASH_U10_NAND-4_N35641 FLASH_U10_N05416
+  FLASH_U10_NAND-4_N35937 0 CMOSN  
+ L=.18u  
+ W=.18u         
M_FLASH_U10_NAND-4_M8         2SB FLASH_U10_N05550 N01357 N01357 CMOSP  
+ L=.18u  
+ W=.2u         
M_FLASH_U10_NAND-4_M3         2SB FLASH_U10_N05351 N01357 N01357 CMOSP  
+ L=.18u  
+ W=.2u         
R_FLASH_U10_NAND-4_R1         FLASH_U10_N05351 0  10Meg  
M_FLASH_U10_NAND-4_M4         2SB FLASH_U10_N05416 N01357 N01357 CMOSP  
+ L=.18u  
+ W=.2u         
R_FLASH_U10_NAND-4_R2         FLASH_U10_N05416 0  10Meg  
R_FLASH_U10_NAND-4_R3         FLASH_U10_N05692 0  10Meg  
M_FLASH_U10_NAND6_M2         FLASH_U10_NAND6_N27813 FLASH_Q3 0 0 CMOSN  
+ L=.18u  
+ W=.18u         
M_FLASH_U10_NAND6_M4         FLASH_U10_N00349 FLASH_Q3 N01357 N01357 CMOSP  
+ L=.18u  
+ W=.2u         
R_FLASH_U10_NAND6_R1         0 FLASH_-Q2  10Meg  
R_FLASH_U10_NAND6_R2         0 FLASH_Q3  10Meg  
M_FLASH_U10_NAND6_M5         FLASH_U10_N00349 FLASH_-Q2 N01357 N01357 CMOSP  
+ L=.18u  
+ W=.2u         
M_FLASH_U10_NAND6_M6         FLASH_U10_N00349 FLASH_-Q2 FLASH_U10_NAND6_N27813
+  0 CMOSN  
+ L=.18u  
+ W=.18u         
M_FLASH_U10_NAND9_M2         FLASH_U10_NAND9_N27813 FLASH_Q14 0 0 CMOSN  
+ L=.18u  
+ W=.18u         
M_FLASH_U10_NAND9_M4         FLASH_U10_N05550 FLASH_Q14 N01357 N01357 CMOSP  
+ L=.18u  
+ W=.2u         
R_FLASH_U10_NAND9_R1         0 FLASH_-Q12  10Meg  
R_FLASH_U10_NAND9_R2         0 FLASH_Q14  10Meg  
M_FLASH_U10_NAND9_M5         FLASH_U10_N05550 FLASH_-Q12 N01357 N01357 CMOSP  
+ L=.18u  
+ W=.2u         
M_FLASH_U10_NAND9_M6         FLASH_U10_N05550 FLASH_-Q12 FLASH_U10_NAND9_N27813
+  0 CMOSN  
+ L=.18u  
+ W=.18u         
M_FLASH_U10_NAND3_M2         FLASH_U10_NAND3_N27813 FLASH_Q9 0 0 CMOSN  
+ L=.18u  
+ W=.18u         
M_FLASH_U10_NAND3_M4         FLASH_U10_N00265 FLASH_Q9 N01357 N01357 CMOSP  
+ L=.18u  
+ W=.2u         
R_FLASH_U10_NAND3_R1         0 FLASH_-Q8  10Meg  
R_FLASH_U10_NAND3_R2         0 FLASH_Q9  10Meg  
M_FLASH_U10_NAND3_M5         FLASH_U10_N00265 FLASH_-Q8 N01357 N01357 CMOSP  
+ L=.18u  
+ W=.2u         
M_FLASH_U10_NAND3_M6         FLASH_U10_N00265 FLASH_-Q8 FLASH_U10_NAND3_N27813
+  0 CMOSN  
+ L=.18u  
+ W=.18u         
M_FLASH_U10_NAND-8_M1         LSB FLASH_U10_N00653 FLASH_U10_NAND-8_N53888 0
+  CMOSN  
+ L=.18u  
+ W=.18u         
M_FLASH_U10_NAND-8_M14         FLASH_U10_NAND-8_N53542 FLASH_U10_N00293
+  FLASH_U10_NAND-8_N56639 0 CMOSN  
+ L=.18u  
+ W=.18u         
M_FLASH_U10_NAND-8_M6         FLASH_U10_NAND-8_N54114 FLASH_U10_N00389
+  FLASH_U10_NAND-8_N54154 0 CMOSN  
+ L=.18u  
+ W=.18u         
M_FLASH_U10_NAND-8_M8         LSB FLASH_U10_N00293 N01357 N01357 CMOSP  
+ L=.18u  
+ W=.2u         
M_FLASH_U10_NAND-8_M16         LSB FLASH_U10_N00437 N01357 N01357 CMOSP  
+ L=.18u  
+ W=.2u         
R_FLASH_U10_NAND-8_R6         FLASH_U10_N00317 0  10Meg  
M_FLASH_U10_NAND-8_M2         FLASH_U10_NAND-8_N53888 FLASH_U10_N00349
+  FLASH_U10_NAND-8_N54114 0 CMOSN  
+ L=.18u  
+ W=.18u         
R_FLASH_U10_NAND-8_R8         FLASH_U10_N00277 0  10Meg  
R_FLASH_U10_NAND-8_R7         FLASH_U10_N00293 0  10Meg  
M_FLASH_U10_NAND-8_M3         LSB FLASH_U10_N00349 N01357 N01357 CMOSP  
+ L=.18u  
+ W=.2u         
R_FLASH_U10_NAND-8_R1         FLASH_U10_N00653 0  10Meg  
R_FLASH_U10_NAND-8_R2         FLASH_U10_N00349 0  10Meg  
R_FLASH_U10_NAND-8_R5         FLASH_U10_N00265 0  10Meg  
M_FLASH_U10_NAND-8_M15         FLASH_U10_NAND-8_N56639 FLASH_U10_N00277 0 0
+  CMOSN  
+ L=.18u  
+ W=.18u         
M_FLASH_U10_NAND-8_M4         LSB FLASH_U10_N00389 N01357 N01357 CMOSP  
+ L=.18u  
+ W=.2u         
R_FLASH_U10_NAND-8_R3         FLASH_U10_N00389 0  10Meg  
M_FLASH_U10_NAND-8_M11         LSB FLASH_U10_N00653 N01357 N01357 CMOSP  
+ L=.18u  
+ W=.2u         
M_FLASH_U10_NAND-8_M7         FLASH_U10_NAND-8_N54154 FLASH_U10_N00437
+  FLASH_U10_NAND-8_N53250 0 CMOSN  
+ L=.18u  
+ W=.18u         
M_FLASH_U10_NAND-8_M9         LSB FLASH_U10_N00317 N01357 N01357 CMOSP  
+ L=.18u  
+ W=.2u         
M_FLASH_U10_NAND-8_M12         LSB FLASH_U10_N00265 N01357 N01357 CMOSP  
+ L=.18u  
+ W=.2u         
R_FLASH_U10_NAND-8_R4         FLASH_U10_N00437 0  10Meg  
M_FLASH_U10_NAND-8_M5         LSB FLASH_U10_N00277 N01357 N01357 CMOSP  
+ L=.18u  
+ W=.2u         
M_FLASH_U10_NAND-8_M10         FLASH_U10_NAND-8_N53250 FLASH_U10_N00265
+  FLASH_U10_NAND-8_N53536 0 CMOSN  
+ L=.18u  
+ W=.18u         
M_FLASH_U10_NAND-8_M13         FLASH_U10_NAND-8_N53536 FLASH_U10_N00317
+  FLASH_U10_NAND-8_N53542 0 CMOSN  
+ L=.18u  
+ W=.18u         
R_FLASH_R3         FLASH_N011830 0  1Meg  
R_FLASH_R2         FLASH_N012620 0  1Meg  
C_FLASH_FFD9_C3         0 FLASH_FFD9_Y  10p  
M_FLASH_FFD9_NAND_M1         FLASH_FFD9_N00589 FLASH_FFD9_N00861
+  FLASH_FFD9_NAND_N00209 FLASH_FFD9_NAND_N00209 CMOSN  
+ L=.18u  
+ W=.18u         
M_FLASH_FFD9_NAND_M2         FLASH_FFD9_NAND_N00209 FLASH_FFD9_X 0 0 CMOSN  
+ L=.18u  
+ W=.18u         
M_FLASH_FFD9_NAND_M3         FLASH_FFD9_N00589 FLASH_FFD9_N00861 N01357 N01357
+  CMOSP  
+ L=.18u  
+ W=.2u         
M_FLASH_FFD9_NAND_M4         FLASH_FFD9_N00589 FLASH_FFD9_X N01357 N01357 CMOSP
+   
+ L=.18u  
+ W=.2u         
R_FLASH_FFD9_NAND_R1         FLASH_FFD9_N00861 0  10Meg  
R_FLASH_FFD9_NAND_R2         FLASH_FFD9_X 0  10Meg  
M_FLASH_FFD9_NAND-3_M2         FLASH_FFD9_NAND-3_N05674 N03388
+  FLASH_FFD9_NAND-3_N05700 FLASH_FFD9_NAND-3_N05700 CMOSN  
+ L=.18u  
+ W=.18u         
M_FLASH_FFD9_NAND-3_M3         FLASH_FFD9_Y FLASH_FFD9_X N01357 N01357 CMOSP  
+ L=.18u  
+ W=.2u         
M_FLASH_FFD9_NAND-3_M5         FLASH_FFD9_Y FLASH_FFD9_N00861 N01357 N01357
+  CMOSP  
+ L=.18u  
+ W=.2u         
M_FLASH_FFD9_NAND-3_M4         FLASH_FFD9_Y N03388 N01357 N01357 CMOSP  
+ L=.18u  
+ W=.2u         
M_FLASH_FFD9_NAND-3_M6         FLASH_FFD9_NAND-3_N05700 FLASH_FFD9_N00861 0 0
+  CMOSN  
+ L=.18u  
+ W=.18u         
M_FLASH_FFD9_NAND-3_M1         FLASH_FFD9_Y FLASH_FFD9_X
+  FLASH_FFD9_NAND-3_N05674 FLASH_FFD9_NAND-3_N05674 CMOSN  
+ L=.18u  
+ W=.18u         
M_FLASH_FFD9_NAND1_M1         FLASH_FFD9_N00861 FLASH_FFD9_Y
+  FLASH_FFD9_NAND1_N00209 FLASH_FFD9_NAND1_N00209 CMOSN  
+ L=.18u  
+ W=.18u         
M_FLASH_FFD9_NAND1_M2         FLASH_FFD9_NAND1_N00209 FLASH_N09748 0 0 CMOSN  
+ L=.18u  
+ W=.18u         
M_FLASH_FFD9_NAND1_M3         FLASH_FFD9_N00861 FLASH_FFD9_Y N01357 N01357
+  CMOSP  
+ L=.18u  
+ W=.2u         
M_FLASH_FFD9_NAND1_M4         FLASH_FFD9_N00861 FLASH_N09748 N01357 N01357
+  CMOSP  
+ L=.18u  
+ W=.2u         
R_FLASH_FFD9_NAND1_R1         FLASH_FFD9_Y 0  10Meg  
R_FLASH_FFD9_NAND1_R2         FLASH_N09748 0  10Meg  
M_FLASH_FFD9_NAND3_M1         FLASH_Q9 FLASH_FFD9_X FLASH_FFD9_NAND3_N00209
+  FLASH_FFD9_NAND3_N00209 CMOSN  
+ L=.18u  
+ W=.18u         
M_FLASH_FFD9_NAND3_M2         FLASH_FFD9_NAND3_N00209 FLASH_N093700 0 0 CMOSN  
+ L=.18u  
+ W=.18u         
M_FLASH_FFD9_NAND3_M3         FLASH_Q9 FLASH_FFD9_X N01357 N01357 CMOSP  
+ L=.18u  
+ W=.2u         
M_FLASH_FFD9_NAND3_M4         FLASH_Q9 FLASH_N093700 N01357 N01357 CMOSP  
+ L=.18u  
+ W=.2u         
R_FLASH_FFD9_NAND3_R1         FLASH_FFD9_X 0  10Meg  
R_FLASH_FFD9_NAND3_R2         FLASH_N093700 0  10Meg  
M_FLASH_FFD9_NAND2_M1         FLASH_FFD9_X FLASH_FFD9_N00589
+  FLASH_FFD9_NAND2_N00209 FLASH_FFD9_NAND2_N00209 CMOSN  
+ L=.18u  
+ W=.18u         
M_FLASH_FFD9_NAND2_M2         FLASH_FFD9_NAND2_N00209 N03388 0 0 CMOSN  
+ L=.18u  
+ W=.18u         
M_FLASH_FFD9_NAND2_M3         FLASH_FFD9_X FLASH_FFD9_N00589 N01357 N01357
+  CMOSP  
+ L=.18u  
+ W=.2u         
M_FLASH_FFD9_NAND2_M4         FLASH_FFD9_X N03388 N01357 N01357 CMOSP  
+ L=.18u  
+ W=.2u         
R_FLASH_FFD9_NAND2_R1         FLASH_FFD9_N00589 0  10Meg  
R_FLASH_FFD9_NAND2_R2         N03388 0  10Meg  
M_FLASH_FFD9_NAND4_M1         FLASH_N093700 FLASH_Q9 FLASH_FFD9_NAND4_N00209
+  FLASH_FFD9_NAND4_N00209 CMOSN  
+ L=.18u  
+ W=.18u         
M_FLASH_FFD9_NAND4_M2         FLASH_FFD9_NAND4_N00209 FLASH_FFD9_Y 0 0 CMOSN  
+ L=.18u  
+ W=.18u         
M_FLASH_FFD9_NAND4_M3         FLASH_N093700 FLASH_Q9 N01357 N01357 CMOSP  
+ L=.18u  
+ W=.2u         
M_FLASH_FFD9_NAND4_M4         FLASH_N093700 FLASH_FFD9_Y N01357 N01357 CMOSP  
+ L=.18u  
+ W=.2u         
R_FLASH_FFD9_NAND4_R1         FLASH_Q9 0  10Meg  
R_FLASH_FFD9_NAND4_R2         FLASH_FFD9_Y 0  10Meg  
C_FLASH_FFD3_C3         0 FLASH_FFD3_Y  10p  
M_FLASH_FFD3_NAND_M1         FLASH_FFD3_N00589 FLASH_FFD3_N00861
+  FLASH_FFD3_NAND_N00209 FLASH_FFD3_NAND_N00209 CMOSN  
+ L=.18u  
+ W=.18u         
M_FLASH_FFD3_NAND_M2         FLASH_FFD3_NAND_N00209 FLASH_FFD3_X 0 0 CMOSN  
+ L=.18u  
+ W=.18u         
M_FLASH_FFD3_NAND_M3         FLASH_FFD3_N00589 FLASH_FFD3_N00861 N01357 N01357
+  CMOSP  
+ L=.18u  
+ W=.2u         
M_FLASH_FFD3_NAND_M4         FLASH_FFD3_N00589 FLASH_FFD3_X N01357 N01357 CMOSP
+   
+ L=.18u  
+ W=.2u         
R_FLASH_FFD3_NAND_R1         FLASH_FFD3_N00861 0  10Meg  
R_FLASH_FFD3_NAND_R2         FLASH_FFD3_X 0  10Meg  
M_FLASH_FFD3_NAND-3_M2         FLASH_FFD3_NAND-3_N05674 N03388
+  FLASH_FFD3_NAND-3_N05700 FLASH_FFD3_NAND-3_N05700 CMOSN  
+ L=.18u  
+ W=.18u         
M_FLASH_FFD3_NAND-3_M3         FLASH_FFD3_Y FLASH_FFD3_X N01357 N01357 CMOSP  
+ L=.18u  
+ W=.2u         
M_FLASH_FFD3_NAND-3_M5         FLASH_FFD3_Y FLASH_FFD3_N00861 N01357 N01357
+  CMOSP  
+ L=.18u  
+ W=.2u         
M_FLASH_FFD3_NAND-3_M4         FLASH_FFD3_Y N03388 N01357 N01357 CMOSP  
+ L=.18u  
+ W=.2u         
M_FLASH_FFD3_NAND-3_M6         FLASH_FFD3_NAND-3_N05700 FLASH_FFD3_N00861 0 0
+  CMOSN  
+ L=.18u  
+ W=.18u         
M_FLASH_FFD3_NAND-3_M1         FLASH_FFD3_Y FLASH_FFD3_X
+  FLASH_FFD3_NAND-3_N05674 FLASH_FFD3_NAND-3_N05674 CMOSN  
+ L=.18u  
+ W=.18u         
M_FLASH_FFD3_NAND1_M1         FLASH_FFD3_N00861 FLASH_FFD3_Y
+  FLASH_FFD3_NAND1_N00209 FLASH_FFD3_NAND1_N00209 CMOSN  
+ L=.18u  
+ W=.18u         
M_FLASH_FFD3_NAND1_M2         FLASH_FFD3_NAND1_N00209 FLASH_N01450 0 0 CMOSN  
+ L=.18u  
+ W=.18u         
M_FLASH_FFD3_NAND1_M3         FLASH_FFD3_N00861 FLASH_FFD3_Y N01357 N01357
+  CMOSP  
+ L=.18u  
+ W=.2u         
M_FLASH_FFD3_NAND1_M4         FLASH_FFD3_N00861 FLASH_N01450 N01357 N01357
+  CMOSP  
+ L=.18u  
+ W=.2u         
R_FLASH_FFD3_NAND1_R1         FLASH_FFD3_Y 0  10Meg  
R_FLASH_FFD3_NAND1_R2         FLASH_N01450 0  10Meg  
M_FLASH_FFD3_NAND3_M1         FLASH_Q3 FLASH_FFD3_X FLASH_FFD3_NAND3_N00209
+  FLASH_FFD3_NAND3_N00209 CMOSN  
+ L=.18u  
+ W=.18u         
M_FLASH_FFD3_NAND3_M2         FLASH_FFD3_NAND3_N00209 FLASH_N011830 0 0 CMOSN  
+ L=.18u  
+ W=.18u         
M_FLASH_FFD3_NAND3_M3         FLASH_Q3 FLASH_FFD3_X N01357 N01357 CMOSP  
+ L=.18u  
+ W=.2u         
M_FLASH_FFD3_NAND3_M4         FLASH_Q3 FLASH_N011830 N01357 N01357 CMOSP  
+ L=.18u  
+ W=.2u         
R_FLASH_FFD3_NAND3_R1         FLASH_FFD3_X 0  10Meg  
R_FLASH_FFD3_NAND3_R2         FLASH_N011830 0  10Meg  
M_FLASH_FFD3_NAND2_M1         FLASH_FFD3_X FLASH_FFD3_N00589
+  FLASH_FFD3_NAND2_N00209 FLASH_FFD3_NAND2_N00209 CMOSN  
+ L=.18u  
+ W=.18u         
M_FLASH_FFD3_NAND2_M2         FLASH_FFD3_NAND2_N00209 N03388 0 0 CMOSN  
+ L=.18u  
+ W=.18u         
M_FLASH_FFD3_NAND2_M3         FLASH_FFD3_X FLASH_FFD3_N00589 N01357 N01357
+  CMOSP  
+ L=.18u  
+ W=.2u         
M_FLASH_FFD3_NAND2_M4         FLASH_FFD3_X N03388 N01357 N01357 CMOSP  
+ L=.18u  
+ W=.2u         
R_FLASH_FFD3_NAND2_R1         FLASH_FFD3_N00589 0  10Meg  
R_FLASH_FFD3_NAND2_R2         N03388 0  10Meg  
M_FLASH_FFD3_NAND4_M1         FLASH_N011830 FLASH_Q3 FLASH_FFD3_NAND4_N00209
+  FLASH_FFD3_NAND4_N00209 CMOSN  
+ L=.18u  
+ W=.18u         
M_FLASH_FFD3_NAND4_M2         FLASH_FFD3_NAND4_N00209 FLASH_FFD3_Y 0 0 CMOSN  
+ L=.18u  
+ W=.18u         
M_FLASH_FFD3_NAND4_M3         FLASH_N011830 FLASH_Q3 N01357 N01357 CMOSP  
+ L=.18u  
+ W=.2u         
M_FLASH_FFD3_NAND4_M4         FLASH_N011830 FLASH_FFD3_Y N01357 N01357 CMOSP  
+ L=.18u  
+ W=.2u         
R_FLASH_FFD3_NAND4_R1         FLASH_Q3 0  10Meg  
R_FLASH_FFD3_NAND4_R2         FLASH_FFD3_Y 0  10Meg  
M_FLASH_C6_M4         FLASH_C6_N26867 FLASH_C6_N27085 N01357 N01357 CMOSP  
+ L=.2u  
+ W=.6u         
M_FLASH_C6_M5         FLASH_C6_N27149 N03836 0 0 CMOSN  
+ L=.2u  
+ W=.6u         
M_FLASH_C6_M6         FLASH_N01420 FLASH_C6_N26867 N01357 N01357 CMOSP  
+ L=.2u  
+ W=.8u         
M_FLASH_C6_M7         FLASH_N01420 N03836 0 0 CMOSN  
+ L=.2u  
+ W=.4u         
M_FLASH_C6_M1         FLASH_C6_N27085 N14031 FLASH_C6_N27149 0 CMOSN  
+ L=.2u  
+ W=.4u         
M_FLASH_C6_M2         FLASH_C6_N26867 C6 FLASH_C6_N27149 0 CMOSN  
+ L=.2u  
+ W=.4u         
M_FLASH_C6_M3         FLASH_C6_N27085 FLASH_C6_N27085 N01357 N01357 CMOSP  
+ L=.2u  
+ W=.6u         
C_FLASH_FFD10_C3         0 FLASH_FFD10_Y  10p  
M_FLASH_FFD10_NAND_M1         FLASH_FFD10_N00589 FLASH_FFD10_N00861
+  FLASH_FFD10_NAND_N00209 FLASH_FFD10_NAND_N00209 CMOSN  
+ L=.18u  
+ W=.18u         
M_FLASH_FFD10_NAND_M2         FLASH_FFD10_NAND_N00209 FLASH_FFD10_X 0 0 CMOSN  
+ L=.18u  
+ W=.18u         
M_FLASH_FFD10_NAND_M3         FLASH_FFD10_N00589 FLASH_FFD10_N00861 N01357
+  N01357 CMOSP  
+ L=.18u  
+ W=.2u         
M_FLASH_FFD10_NAND_M4         FLASH_FFD10_N00589 FLASH_FFD10_X N01357 N01357
+  CMOSP  
+ L=.18u  
+ W=.2u         
R_FLASH_FFD10_NAND_R1         FLASH_FFD10_N00861 0  10Meg  
R_FLASH_FFD10_NAND_R2         FLASH_FFD10_X 0  10Meg  
M_FLASH_FFD10_NAND-3_M2         FLASH_FFD10_NAND-3_N05674 N03388
+  FLASH_FFD10_NAND-3_N05700 FLASH_FFD10_NAND-3_N05700 CMOSN  
+ L=.18u  
+ W=.18u         
M_FLASH_FFD10_NAND-3_M3         FLASH_FFD10_Y FLASH_FFD10_X N01357 N01357 CMOSP
+   
+ L=.18u  
+ W=.2u         
M_FLASH_FFD10_NAND-3_M5         FLASH_FFD10_Y FLASH_FFD10_N00861 N01357 N01357
+  CMOSP  
+ L=.18u  
+ W=.2u         
M_FLASH_FFD10_NAND-3_M4         FLASH_FFD10_Y N03388 N01357 N01357 CMOSP  
+ L=.18u  
+ W=.2u         
M_FLASH_FFD10_NAND-3_M6         FLASH_FFD10_NAND-3_N05700 FLASH_FFD10_N00861 0
+  0 CMOSN  
+ L=.18u  
+ W=.18u         
M_FLASH_FFD10_NAND-3_M1         FLASH_FFD10_Y FLASH_FFD10_X
+  FLASH_FFD10_NAND-3_N05674 FLASH_FFD10_NAND-3_N05674 CMOSN  
+ L=.18u  
+ W=.18u         
M_FLASH_FFD10_NAND1_M1         FLASH_FFD10_N00861 FLASH_FFD10_Y
+  FLASH_FFD10_NAND1_N00209 FLASH_FFD10_NAND1_N00209 CMOSN  
+ L=.18u  
+ W=.18u         
M_FLASH_FFD10_NAND1_M2         FLASH_FFD10_NAND1_N00209 FLASH_N09532 0 0 CMOSN 
+  
+ L=.18u  
+ W=.18u         
M_FLASH_FFD10_NAND1_M3         FLASH_FFD10_N00861 FLASH_FFD10_Y N01357 N01357
+  CMOSP  
+ L=.18u  
+ W=.2u         
M_FLASH_FFD10_NAND1_M4         FLASH_FFD10_N00861 FLASH_N09532 N01357 N01357
+  CMOSP  
+ L=.18u  
+ W=.2u         
R_FLASH_FFD10_NAND1_R1         FLASH_FFD10_Y 0  10Meg  
R_FLASH_FFD10_NAND1_R2         FLASH_N09532 0  10Meg  
M_FLASH_FFD10_NAND3_M1         FLASH_Q10 FLASH_FFD10_X FLASH_FFD10_NAND3_N00209
+  FLASH_FFD10_NAND3_N00209 CMOSN  
+ L=.18u  
+ W=.18u         
M_FLASH_FFD10_NAND3_M2         FLASH_FFD10_NAND3_N00209 FLASH_-Q10 0 0 CMOSN  
+ L=.18u  
+ W=.18u         
M_FLASH_FFD10_NAND3_M3         FLASH_Q10 FLASH_FFD10_X N01357 N01357 CMOSP  
+ L=.18u  
+ W=.2u         
M_FLASH_FFD10_NAND3_M4         FLASH_Q10 FLASH_-Q10 N01357 N01357 CMOSP  
+ L=.18u  
+ W=.2u         
R_FLASH_FFD10_NAND3_R1         FLASH_FFD10_X 0  10Meg  
R_FLASH_FFD10_NAND3_R2         FLASH_-Q10 0  10Meg  
M_FLASH_FFD10_NAND2_M1         FLASH_FFD10_X FLASH_FFD10_N00589
+  FLASH_FFD10_NAND2_N00209 FLASH_FFD10_NAND2_N00209 CMOSN  
+ L=.18u  
+ W=.18u         
M_FLASH_FFD10_NAND2_M2         FLASH_FFD10_NAND2_N00209 N03388 0 0 CMOSN  
+ L=.18u  
+ W=.18u         
M_FLASH_FFD10_NAND2_M3         FLASH_FFD10_X FLASH_FFD10_N00589 N01357 N01357
+  CMOSP  
+ L=.18u  
+ W=.2u         
M_FLASH_FFD10_NAND2_M4         FLASH_FFD10_X N03388 N01357 N01357 CMOSP  
+ L=.18u  
+ W=.2u         
R_FLASH_FFD10_NAND2_R1         FLASH_FFD10_N00589 0  10Meg  
R_FLASH_FFD10_NAND2_R2         N03388 0  10Meg  
M_FLASH_FFD10_NAND4_M1         FLASH_-Q10 FLASH_Q10 FLASH_FFD10_NAND4_N00209
+  FLASH_FFD10_NAND4_N00209 CMOSN  
+ L=.18u  
+ W=.18u         
M_FLASH_FFD10_NAND4_M2         FLASH_FFD10_NAND4_N00209 FLASH_FFD10_Y 0 0 CMOSN
+   
+ L=.18u  
+ W=.18u         
M_FLASH_FFD10_NAND4_M3         FLASH_-Q10 FLASH_Q10 N01357 N01357 CMOSP  
+ L=.18u  
+ W=.2u         
M_FLASH_FFD10_NAND4_M4         FLASH_-Q10 FLASH_FFD10_Y N01357 N01357 CMOSP  
+ L=.18u  
+ W=.2u         
R_FLASH_FFD10_NAND4_R1         FLASH_Q10 0  10Meg  
R_FLASH_FFD10_NAND4_R2         FLASH_FFD10_Y 0  10Meg  
[...]
**** 12/03/09 16:04:14 ******* PSpice 10.5.0 (Jan 2005) ******* ID# 0 ********

 ** Profile: "FLASH-bias"  [ D:\Documents\TESIS\TRUNK\Design\I-FLASH-01\OrCAD\I-FLASH-4BIT\i-flash-4bit-pspicefiles\flash\bias.sim ] 


 ****     MOSFET MODEL PARAMETERS


******************************************************************************




               CMOSN           CMOSP           
               NMOS            PMOS            
  T_Measured   27              27            
   T_Current   27              27            
       LEVEL    7               7            
           L  100.000000E-06  100.000000E-06 
           W  100.000000E-06  100.000000E-06 
         VTO     .294194        -.413091     
          KP  460.419200E-06  460.419200E-06 
       GAMMA    0               0            
      LAMBDA    0               0            
         RSH    6.2             5.9          
          IS    1.000000E-15    1.000000E-15 
          JS  100.000000E-06  100.000000E-06 
          PB     .99             .821464     
        PBSW     .8              .8008       
          CJ  815.244000E-06    1.165977E-03 
        CJSW  165.796200E-12  122.005600E-12 
          MJ     .610228         .425655     
        MJSW     .163262         .1001       
        CGSO  500.000000E-12  500.000000E-12 
        CGDO  500.000000E-12  500.000000E-12 
        CGBO    1.000000E-12    1.000000E-12 
         TOX    4.500000E-09    4.500000E-09 
          XJ  100.000000E-09  100.000000E-09 
       UCRIT   10.000000E+03   10.000000E+03 
       DELTA     .01             .01         
      DIOMOD    2               2            
          K1     .541355         .59909      
          K2    -.032332     -669.794000E-09 
        LETA    0               0            
        WETA    0               0            
          U0  269.8792        118.3014       
       XPART     .5              .5          
        VTH0     .294194        -.413091     
          K3    1.000406E-03     .080859     
          W0  100.000000E-09    1.000000E-06 
         NLX  206.491900E-09   25.530790E-09 
        DVT0     .565214         .819884     
        DVT1     .260305         .744212     
          UA   -1.619209E-09    1.535614E-09 
          UB    2.953688E-18    1.000000E-21 
          UC   57.637850E-12 -100.000000E-12 
        VSAT  106.504000E+03  173.454300E+03 
        RDSW  150             677.8533       
        VOFF    -.09299         -.142681     
     NFACTOR    2.044734         .94145      
        PCLM    1.968647         .334199     
      PDIBL1    1                .132793     
      PDIBL2    -.072042        9.825629E-03 
       DROUT    1                .81589      
      PSCBE1    2.350722E+09    3.057881E+09 
      PSCBE2  508.313600E-12    5.892816E-09 
          A0    1.425322         .926787     
          A1     .023731         .01033      
          A2     .550469         .752154     
       NPEAK  235.490000E+15  415.890000E+15 
         LDD    0               0            
        LITL   36.742350E-09   36.742350E-09 
         UC1  -56.000000E-12  -56.000000E-12 
        PVAG                     .122566     
        KETA    -.016685         .022875     
        ETA0    6.051176E-03    1.263659E-03 
        ETAB -858.512600E-06   -2.195822E-03 
         K3B    5.01511        19.71403      
        DVT2    -.067374        -.3          
        DSUB    3.642935E-03    4.891602E-03 
         AGS     .37123          .166834     
       DVT1W    0               0            
       DVT2W    0               0            
        PRWG     .34061         -.054897     
        PRWB    -.183689        -.5          
     PDIBLCB    -.1            -1.000000E-03 
         DWG    5.313945E-09  -25.031010E-09 
         DWB   13.440770E-09  -12.379610E-09 
          B0  -23.699750E-09    1.874426E-06 
          B1                    5.000000E-06 
        LINT   20.673220E-09   27.788770E-09 
        WINT   12.447730E-09                 
         DLC   20.673220E-09   27.788770E-09 
         DWC   12.447730E-09    0            
          CF    0               0            
        NOIA  100.000000E+18    9.900001E+18 
        NOIB   50.000000E+03    2.400000E+03 
        NOIC   -1.400000E-12    1.400000E-12 
       LKETA  399.601500E-06    -.010867     
       WKETA    3.401938E-03     .03239      
       PVSAT  790.3922         50            
       PKETA    -.014873       -6.167985E-03 
       PVTH0   -4.814415E-03    1.001339E-03 
         PUA  -31.414400E-12  362.786900E-12 
         PU0   -4.028575        7.380991     
       PRDSW   -2.504635       -5            
       PETA0  -67.588480E-06  100.000000E-06 
         PK2    3.159047E-03   30.964830E-06 
         VTM     .025864         .025864     
       PBSWG     .8              .8008       
       MJSWG     .163262         .1001       
       CJSWG  330.000000E-12  422.000000E-12 


WARNING -- Mosfet M_FLASH_FFD11_NAND_M1, model CMOSN: Pd = 0 is less than W
WARNING -- Mosfet M_FLASH_FFD11_NAND_M1, model CMOSN: Ps = 0 is less than W
WARNING -- Mosfet M_FLASH_C7_M5, model CMOSN: Pd = 0 is less than W
WARNING -- Mosfet M_FLASH_C7_M5, model CMOSN: Ps = 0 is less than W
WARNING -- Mosfet M_FLASH_C7_M7, model CMOSN: Pd = 0 is less than W
WARNING -- Mosfet M_FLASH_C7_M7, model CMOSN: Ps = 0 is less than W
WARNING -- Mosfet M_FLASH_FFD11_NAND_M3, model CMOSP: Pd = 0 is less than W
WARNING -- Mosfet M_FLASH_FFD11_NAND_M3, model CMOSP: Ps = 0 is less than W
WARNING -- Mosfet M_FLASH_C7_M4, model CMOSP: Pd = 0 is less than W
WARNING -- Mosfet M_FLASH_C7_M4, model CMOSP: Ps = 0 is less than W
WARNING -- Mosfet M_FLASH_C7_M6, model CMOSP: Pd = 0 is less than W
WARNING -- Mosfet M_FLASH_C7_M6, model CMOSP: Ps = 0 is less than W
ERROR -- Convergence problem in bias point calculation


  Last node voltages tried were:

 NODE   VOLTAGE     NODE   VOLTAGE     NODE   VOLTAGE     NODE   VOLTAGE


(   C1) 2.667E-06  (   C2) 4.000E-06  (   C3) 5.333E-06  (   C4) 6.667E-06      

(   C5) 8.000E-06  (   C6) 9.333E-06  (   C7) 10.67E-06  (   C8) 12.00E-06      

(   C9) 13.33E-06  (  2SB) 49.99E-06  (  3SB) 49.99E-06  (  C10) 14.67E-06      

(  C11) 16.00E-06  (  C12) 17.33E-06  (  C13) 18.67E-06  (  C14) 20.00E-06      

(  C15) 21.33E-06  (  LSB)  -37.5550  (  MSB) 49.01E-06  (N01357) 50.00E-06     

(N03388)    0.0000 (N03836) 3.000E-06 (N14031)    0.0000 (N14439) 22.00E-06     

(FLASH_Q1) 117.0E-09                  (FLASH_Q2) 117.0E-09                      

(FLASH_Q3) 117.0E-09                  (FLASH_Q4) 117.0E-09                      

(FLASH_Q5) 117.0E-09                  (FLASH_Q6) 117.0E-09                      

(FLASH_Q7) 117.0E-09                  (FLASH_Q8) 49.01E-06                      

(FLASH_Q9) 117.0E-09                  (FLASH_-Q2) 117.0E-09                     

(FLASH_-Q4) 78.35E-09                 (FLASH_-Q6) 117.0E-09                     

(FLASH_-Q8) 58.87E-09                 (FLASH_Q10) 117.0E-09                     

(FLASH_Q11) 117.0E-09                 (FLASH_Q12) 117.0E-09                     

(FLASH_Q13) 117.0E-09                 (FLASH_Q14) 117.0E-09                     

(FLASH_Q15) 117.0E-09                 (FLASH_-Q10) 117.0E-09                    

(FLASH_-Q12) 78.35E-09                (FLASH_-Q14) 117.0E-09                    

(FLASH_FFD1_X) 117.0E-09              (FLASH_FFD1_Y) 176.0E-09                  

(FLASH_FFD2_X) 117.0E-09              (FLASH_FFD2_Y) 176.0E-09                  

(FLASH_FFD3_X) 117.0E-09              (FLASH_FFD3_Y) 176.0E-09                  

(FLASH_FFD4_X) 117.0E-09              (FLASH_FFD4_Y) 176.0E-09                  

(FLASH_FFD5_X) 117.0E-09              (FLASH_FFD5_Y) 176.0E-09                  

(FLASH_FFD6_X) 117.0E-09              (FLASH_FFD6_Y) 176.0E-09                  

(FLASH_FFD7_X) 117.0E-09              (FLASH_FFD7_Y) 176.0E-09                  

(FLASH_FFD8_X) 117.0E-09              (FLASH_FFD8_Y) 176.0E-09                  

(FLASH_FFD9_X) 117.0E-09              (FLASH_FFD9_Y) 176.0E-09                  

(FLASH_N01400) 132.4E-09              (FLASH_N01410) 132.4E-09                  

(FLASH_N01420) 132.4E-09              (FLASH_N01450) 132.4E-09                  

(FLASH_N01460) 132.4E-09              (FLASH_N03459) 132.4E-09                  

(FLASH_N03795) 132.4E-09              (FLASH_N05296) 132.4E-09                  

(FLASH_N09520) 132.4E-09              (FLASH_N09524) 132.4E-09                  

(FLASH_N09528) 132.4E-09              (FLASH_N09532) 132.4E-09                  

(FLASH_N09726) 132.4E-09              (FLASH_N09748) 132.4E-09                  

(FLASH_N09782) 132.4E-09              (FLASH_FFD10_X) 117.0E-09                 

(FLASH_FFD10_Y) 176.0E-09             (FLASH_FFD11_X) 117.0E-09                 

(FLASH_FFD11_Y) 176.0E-09             (FLASH_FFD12_X) 117.0E-09                 

(FLASH_FFD12_Y) 176.0E-09             (FLASH_FFD13_X) 117.0E-09                 

(FLASH_FFD13_Y) 176.0E-09             (FLASH_FFD14_X) 117.0E-09                 

(FLASH_FFD14_Y) 176.0E-09             (FLASH_FFD15_X) 117.0E-09                 

(FLASH_FFD15_Y) 176.0E-09             (FLASH_N011060) 21.52E-09                 

(FLASH_N011830) 21.52E-09             (FLASH_N012620) 21.52E-09                 

(FLASH_N013450) 21.52E-09             (FLASH_N093700) 21.52E-09                 

(FLASH_N094100) 21.52E-09             (FLASH_N094500) 21.52E-09                 

(FLASH_N094900) 21.52E-09             (LEADER_N04254) 2.000E-06                 

(FLASH_C1_N26867) 24.04E-06           (FLASH_C1_N27085) 24.04E-06               

(FLASH_C1_N27149) 17.26E-06           (FLASH_C2_N26867) 24.04E-06               

(FLASH_C2_N27085) 24.04E-06           (FLASH_C2_N27149) 17.26E-06               

(FLASH_C3_N26867) 24.04E-06           (FLASH_C3_N27085) 24.04E-06               

(FLASH_C3_N27149) 17.26E-06           (FLASH_C4_N26867) 24.04E-06               

(FLASH_C4_N27085) 24.04E-06           (FLASH_C4_N27149) 17.26E-06               

(FLASH_C5_N26867) 24.04E-06           (FLASH_C5_N27085) 24.04E-06               

(FLASH_C5_N27149) 17.26E-06           (FLASH_C6_N26867) 24.04E-06               

(FLASH_C6_N27085) 24.04E-06           (FLASH_C6_N27149) 17.26E-06               

(FLASH_C7_N26867) 24.04E-06           (FLASH_C7_N27085) 24.04E-06               

(FLASH_C7_N27149) 17.26E-06           (FLASH_C8_N26867) 24.03E-06               

(FLASH_C8_N27085) 24.04E-06           (FLASH_C8_N27149) 17.26E-06               

(FLASH_C9_N26867) 24.03E-06           (FLASH_C9_N27085) 24.04E-06               

(FLASH_C9_N27149) 17.26E-06           (FLASH_C10_N26867) 24.03E-06              

(FLASH_C10_N27085) 24.04E-06          (FLASH_C10_N27149) 17.26E-06              

(FLASH_C11_N26867) 24.03E-06          (FLASH_C11_N27085) 24.04E-06              

(FLASH_C11_N27149) 17.26E-06          (FLASH_C12_N26867) 24.03E-06              

(FLASH_C12_N27085) 24.04E-06          (FLASH_C12_N27149) 17.26E-06              

(FLASH_C13_N26867) 24.03E-06          (FLASH_C13_N27085) 24.04E-06              

(FLASH_C13_N27149) 17.26E-06          (FLASH_C14_N26867) 24.03E-06              

(FLASH_C14_N27085) 24.04E-06          (FLASH_C14_N27149) 17.26E-06              

(FLASH_C15_N26867) 24.03E-06          (FLASH_C15_N27085) 24.04E-06              

(FLASH_C15_N27149) 17.26E-06          (FLASH_U10_N00265) 230.6E-09              

(FLASH_U10_N00277) 230.6E-09          (FLASH_U10_N00293) 230.6E-09              

(FLASH_U10_N00317) 230.6E-09          (FLASH_U10_N00349) 230.6E-09              

(FLASH_U10_N00389) 230.6E-09          (FLASH_U10_N00437) 230.6E-09              

(FLASH_U10_N00653) 112.8E-09          (FLASH_U10_N05351) 112.8E-09              

(FLASH_U10_N05416) 230.6E-09          (FLASH_U10_N05550) 230.6E-09              

(FLASH_U10_N05692) 230.6E-09          (FLASH_U10_N05842) 230.6E-09              

(FLASH_U10_N10574) 49.01E-06          (FLASH_U10_N21342) 112.8E-09              

(FLASH_FFD1_N00589) 230.6E-09         (FLASH_FFD1_N00861) 230.6E-09             

(FLASH_FFD2_N00589) 230.6E-09         (FLASH_FFD2_N00861) 230.6E-09             

(FLASH_FFD3_N00589) 230.6E-09         (FLASH_FFD3_N00861) 230.6E-09             

(FLASH_FFD4_N00589) 230.6E-09         (FLASH_FFD4_N00861) 230.6E-09             

(FLASH_FFD5_N00589) 230.6E-09         (FLASH_FFD5_N00861) 230.6E-09             

(FLASH_FFD6_N00589) 230.6E-09         (FLASH_FFD6_N00861) 230.6E-09             

(FLASH_FFD7_N00589) 230.6E-09         (FLASH_FFD7_N00861) 230.6E-09             

(FLASH_FFD8_N00589) 230.6E-09         (FLASH_FFD8_N00861) 230.6E-09             

(FLASH_FFD9_N00589) 230.6E-09         (FLASH_FFD9_N00861) 230.6E-09             

(FLASH_FFD10_N00589) 230.6E-09        (FLASH_FFD10_N00861) 230.6E-09            

(FLASH_FFD11_N00589) 230.6E-09        (FLASH_FFD11_N00861) 230.6E-09            

(FLASH_FFD12_N00589) 230.6E-09        (FLASH_FFD12_N00861) 230.6E-09            

(FLASH_FFD13_N00589) 230.6E-09        (FLASH_FFD13_N00861) 230.6E-09            

(FLASH_FFD14_N00589) 230.6E-09        (FLASH_FFD14_N00861) 230.6E-09            

(FLASH_FFD15_N00589) 230.6E-09        (FLASH_FFD15_N00861) 230.6E-09            

(FLASH_U10_NAND_N27813) 115.2E-09     (FLASH_FFD1_NAND_N00209) 115.3E-09        

(FLASH_FFD2_NAND_N00209) 115.3E-09    (FLASH_FFD3_NAND_N00209) 115.3E-09        

(FLASH_FFD4_NAND_N00209) 115.3E-09    (FLASH_FFD5_NAND_N00209) 115.3E-09        

(FLASH_FFD6_NAND_N00209) 115.3E-09    (FLASH_FFD7_NAND_N00209) 115.3E-09        

(FLASH_FFD8_NAND_N00209) 115.3E-09    (FLASH_FFD9_NAND_N00209) 115.3E-09        

(FLASH_U10_NAND1_N27813) 115.2E-09    (FLASH_U10_NAND2_N27813) 115.2E-09        

(FLASH_U10_NAND3_N27813) 115.2E-09    (FLASH_U10_NAND4_N27813) 115.2E-09        

(FLASH_U10_NAND5_N27813) 115.2E-09    (FLASH_U10_NAND6_N27813) 115.2E-09        

(FLASH_U10_NAND7_N27813) 115.2E-09    (FLASH_U10_NAND8_N27813) 115.2E-09        

(FLASH_U10_NAND9_N27813) 115.2E-09    (FLASH_FFD10_NAND_N00209) 115.3E-09       

(FLASH_FFD11_NAND_N00209) 115.3E-09   (FLASH_FFD12_NAND_N00209) 115.3E-09       

(FLASH_FFD13_NAND_N00209) 115.3E-09   (FLASH_FFD14_NAND_N00209) 115.3E-09       

(FLASH_FFD15_NAND_N00209) 115.3E-09   (FLASH_FFD1_NAND1_N00209) 115.3E-09       

(FLASH_FFD1_NAND2_N00209) 58.48E-09   (FLASH_FFD1_NAND3_N00209) 58.48E-09       

(FLASH_FFD1_NAND4_N00209) 10.76E-09   (FLASH_FFD2_NAND1_N00209) 115.3E-09       

(FLASH_FFD2_NAND2_N00209) 58.48E-09   (FLASH_FFD2_NAND3_N00209) 58.48E-09       

(FLASH_FFD2_NAND4_N00209) 58.48E-09   (FLASH_FFD3_NAND1_N00209) 115.3E-09       

(FLASH_FFD3_NAND2_N00209) 58.48E-09   (FLASH_FFD3_NAND3_N00209) 58.48E-09       

(FLASH_FFD3_NAND4_N00209) 10.76E-09   (FLASH_FFD4_NAND1_N00209) 115.3E-09       

(FLASH_FFD4_NAND2_N00209) 58.48E-09   (FLASH_FFD4_NAND3_N00209) 58.48E-09       

(FLASH_FFD4_NAND4_N00209) 39.18E-09   (FLASH_FFD5_NAND1_N00209) 115.3E-09       

(FLASH_FFD5_NAND2_N00209) 58.48E-09   (FLASH_FFD5_NAND3_N00209) 58.48E-09       

(FLASH_FFD5_NAND4_N00209) 10.76E-09   (FLASH_FFD6_NAND1_N00209) 115.3E-09       

(FLASH_FFD6_NAND2_N00209) 58.48E-09   (FLASH_FFD6_NAND3_N00209) 58.48E-09       

(FLASH_FFD6_NAND4_N00209) 58.48E-09   (FLASH_FFD7_NAND1_N00209) 115.3E-09       

(FLASH_FFD7_NAND2_N00209) 58.48E-09   (FLASH_FFD7_NAND3_N00209) 58.48E-09       

(FLASH_FFD7_NAND4_N00209) 10.76E-09   (FLASH_FFD8_NAND1_N00209) 115.3E-09       

(FLASH_FFD8_NAND2_N00209) 58.48E-09   (FLASH_FFD8_NAND3_N00209) 24.50E-06       

(FLASH_FFD8_NAND4_N00209) 29.45E-09   (FLASH_FFD9_NAND1_N00209) 115.3E-09       

(FLASH_FFD9_NAND2_N00209) 58.48E-09   (FLASH_FFD9_NAND3_N00209) 58.48E-09       

(FLASH_FFD9_NAND4_N00209) 10.76E-09   (FLASH_U10_NAND-4_N35641) 37.46E-06       

(FLASH_U10_NAND-4_N35937) 24.96E-06   (FLASH_U10_NAND-4_N35977) 12.47E-06       

(FLASH_U10_NAND-8_N53250)  -12.7860   (FLASH_U10_NAND-8_N53536)    -.3068       

(FLASH_U10_NAND-8_N53542)     .2706   (FLASH_U10_NAND-8_N53888)    5.3502       

(FLASH_U10_NAND-8_N54114)    3.6006   (FLASH_U10_NAND-8_N54154)    3.0112       

(FLASH_U10_NAND-8_N56639)    1.3149   (FLASH_U10_NAND10_N27813) 115.2E-09       

(FLASH_U10_NAND11_N27813) 24.98E-06   (FLASH_FFD10_NAND1_N00209) 115.3E-09      

(FLASH_FFD10_NAND2_N00209) 58.48E-09  (FLASH_FFD10_NAND3_N00209) 58.48E-09      

(FLASH_FFD10_NAND4_N00209) 58.48E-09  (FLASH_FFD11_NAND1_N00209) 115.3E-09      

(FLASH_FFD11_NAND2_N00209) 58.48E-09  (FLASH_FFD11_NAND3_N00209) 58.48E-09      

(FLASH_FFD11_NAND4_N00209) 10.76E-09  (FLASH_FFD12_NAND1_N00209) 115.3E-09      

(FLASH_FFD12_NAND2_N00209) 58.48E-09  (FLASH_FFD12_NAND3_N00209) 58.48E-09      

(FLASH_FFD12_NAND4_N00209) 39.18E-09  (FLASH_FFD13_NAND1_N00209) 115.3E-09      

(FLASH_FFD13_NAND2_N00209) 58.48E-09  (FLASH_FFD13_NAND3_N00209) 58.48E-09      

(FLASH_FFD13_NAND4_N00209) 10.76E-09  (FLASH_FFD14_NAND1_N00209) 115.3E-09      

(FLASH_FFD14_NAND2_N00209) 58.48E-09  (FLASH_FFD14_NAND3_N00209) 58.48E-09      

(FLASH_FFD14_NAND4_N00209) 58.48E-09  (FLASH_FFD15_NAND1_N00209) 115.3E-09      

(FLASH_FFD15_NAND2_N00209) 58.48E-09  (FLASH_FFD15_NAND3_N00209) 58.48E-09      

(FLASH_FFD15_NAND4_N00209) 10.76E-09  (FLASH_FFD1_NAND-3_N05674) 117.3E-09      

(FLASH_FFD1_NAND-3_N05700) 58.65E-09  (FLASH_FFD2_NAND-3_N05674) 117.3E-09      

(FLASH_FFD2_NAND-3_N05700) 58.65E-09  (FLASH_FFD3_NAND-3_N05674) 117.3E-09      

(FLASH_FFD3_NAND-3_N05700) 58.65E-09  (FLASH_FFD4_NAND-3_N05674) 117.3E-09      

(FLASH_FFD4_NAND-3_N05700) 58.65E-09  (FLASH_FFD5_NAND-3_N05674) 117.3E-09      

(FLASH_FFD5_NAND-3_N05700) 58.65E-09  (FLASH_FFD6_NAND-3_N05674) 117.3E-09      

(FLASH_FFD6_NAND-3_N05700) 58.65E-09  (FLASH_FFD7_NAND-3_N05674) 117.3E-09      

(FLASH_FFD7_NAND-3_N05700) 58.65E-09  (FLASH_FFD8_NAND-3_N05674) 117.3E-09      

(FLASH_FFD8_NAND-3_N05700) 58.65E-09  (FLASH_FFD9_NAND-3_N05674) 117.3E-09      

(FLASH_FFD9_NAND-3_N05700) 58.65E-09  (FLASH_FFD10_NAND-3_N05674) 117.3E-09     

(FLASH_FFD10_NAND-3_N05700) 58.65E-09 (FLASH_FFD11_NAND-3_N05674) 117.3E-09     

(FLASH_FFD11_NAND-3_N05700) 58.65E-09 (FLASH_FFD12_NAND-3_N05674) 117.3E-09     

(FLASH_FFD12_NAND-3_N05700) 58.65E-09 (FLASH_FFD13_NAND-3_N05674) 117.3E-09     

(FLASH_FFD13_NAND-3_N05700) 58.65E-09 (FLASH_FFD14_NAND-3_N05674) 117.3E-09     

(FLASH_FFD14_NAND-3_N05700) 58.65E-09 (FLASH_FFD15_NAND-3_N05674) 117.3E-09     

(FLASH_FFD15_NAND-3_N05700) 58.65E-09 


  These voltages failed to converge:

    V(LSB)                    =    -18.20V  \    -37.56V
    V(FLASH_U10_NAND-8_N53888) =    -11.24V  \     5.350V
    V(FLASH_U10_NAND-8_N53542) =    -1.480V  \   270.55mV
    V(FLASH_U10_NAND-8_N56639) =    -1.216V  \     1.315V
    V(FLASH_U10_NAND-8_N54114) =    -10.90V  \     3.601V
    V(FLASH_U10_NAND-8_N54154) =    -10.58V  \     3.011V
    V(FLASH_U10_NAND-8_N53250) =    -7.271V  \    -12.79V
    V(FLASH_U10_NAND-8_N53536) =    -1.719V  \  -306.75mV

  These supply currents failed to converge:

    I(V_VDD)                  =    1.753mA  \  -380.15uA

  These devices failed to converge:
    M_FLASH_U10_NAND-8_M1 M_FLASH_U10_NAND-8_M14 M_FLASH_U10_NAND-8_M6 
    M_FLASH_U10_NAND-8_M8 M_FLASH_U10_NAND-8_M16 M_FLASH_U10_NAND-8_M2 
    M_FLASH_U10_NAND-8_M3 M_FLASH_U10_NAND-8_M15 M_FLASH_U10_NAND-8_M4 
    M_FLASH_U10_NAND-8_M11 M_FLASH_U10_NAND-8_M7 M_FLASH_U10_NAND-8_M9 
    M_FLASH_U10_NAND-8_M12 M_FLASH_U10_NAND-8_M5 M_FLASH_U10_NAND-8_M10 
    M_FLASH_U10_NAND-8_M13 

**** Interrupt ****
