
**** 11/18/09 21:34:46 ******* PSpice 10.5.0 (Jan 2005) ******* ID# 0 ********

 ** Profile: "FLASH-transient"  [ D:\Documents\TESIS\TRUNK\Design\I-FLASH-01\OrCAD\i-flash-01-pspicefiles\flash\transient.sim ] 


 ****     CIRCUIT DESCRIPTION


******************************************************************************




** Creating circuit file "transient.cir" 
** WARNING: THIS AUTOMATICALLY GENERATED FILE MAY BE OVERWRITTEN BY SUBSEQUENT SIMULATIONS

*Libraries: 
* Profile Libraries :
* Local Libraries :
* From [PSPICE NETLIST] section of C:\OrCAD\OrCAD_10.5\tools\PSpice\PSpice.ini file:
.lib "nom.lib" 

*Analysis directives: 
.TRAN  0 50u 0 0.01u 
.PROBE V(alias(*)) I(alias(*)) W(alias(*)) D(alias(*)) NOISE(alias(*)) 
.INC "..\FLASH.net" 



**** INCLUDING FLASH.net ****
* source I-FLASH-01
V_Vo         VO 0 1.2
R_R2         2SB N00313  10Meg  
R_FLASH_R1         FLASH_N17008 0  10Meg  
C_FLASH_FFD2_C3         0 FLASH_FFD2_Y  10p  
M_FLASH_FFD2_NAND_M1         FLASH_FFD2_N00589 FLASH_FFD2_N00861
+  FLASH_FFD2_NAND_N00209 FLASH_FFD2_NAND_N00209 CMOSN  
+ L=.18u  
+ W=.18u         
M_FLASH_FFD2_NAND_M2         FLASH_FFD2_NAND_N00209 FLASH_FFD2_X 0 0 CMOSN  
+ L=.18u  
+ W=.18u         
M_FLASH_FFD2_NAND_M3         FLASH_FFD2_N00589 FLASH_FFD2_N00861 N00313 N00313
+  CMOSP  
+ L=.18u  
+ W=.2u         
M_FLASH_FFD2_NAND_M4         FLASH_FFD2_N00589 FLASH_FFD2_X N00313 N00313 CMOSP
+   
+ L=.18u  
+ W=.2u         
R_FLASH_FFD2_NAND_R1         FLASH_FFD2_N00861 0  10Meg  
R_FLASH_FFD2_NAND_R2         FLASH_FFD2_X 0  10Meg  
M_FLASH_FFD2_NAND-3_M2         FLASH_FFD2_NAND-3_N05674 N03264
+  FLASH_FFD2_NAND-3_N05700 FLASH_FFD2_NAND-3_N05700 CMOSN  
+ L=.18u  
+ W=.18u         
M_FLASH_FFD2_NAND-3_M3         FLASH_FFD2_Y FLASH_FFD2_X N00313 N00313 CMOSP  
+ L=.18u  
+ W=.2u         
M_FLASH_FFD2_NAND-3_M5         FLASH_FFD2_Y FLASH_FFD2_N00861 N00313 N00313
+  CMOSP  
+ L=.18u  
+ W=.2u         
M_FLASH_FFD2_NAND-3_M4         FLASH_FFD2_Y N03264 N00313 N00313 CMOSP  
+ L=.18u  
+ W=.2u         
M_FLASH_FFD2_NAND-3_M6         FLASH_FFD2_NAND-3_N05700 FLASH_FFD2_N00861 0 0
+  CMOSN  
+ L=.18u  
+ W=.18u         
M_FLASH_FFD2_NAND-3_M1         FLASH_FFD2_Y FLASH_FFD2_X
+  FLASH_FFD2_NAND-3_N05674 FLASH_FFD2_NAND-3_N05674 CMOSN  
+ L=.18u  
+ W=.18u         
M_FLASH_FFD2_NAND1_M1         FLASH_FFD2_N00861 FLASH_FFD2_Y
+  FLASH_FFD2_NAND1_N00209 FLASH_FFD2_NAND1_N00209 CMOSN  
+ L=.18u  
+ W=.18u         
M_FLASH_FFD2_NAND1_M2         FLASH_FFD2_NAND1_N00209 FLASH_N00472 0 0 CMOSN  
+ L=.18u  
+ W=.18u         
M_FLASH_FFD2_NAND1_M3         FLASH_FFD2_N00861 FLASH_FFD2_Y N00313 N00313
+  CMOSP  
+ L=.18u  
+ W=.2u         
M_FLASH_FFD2_NAND1_M4         FLASH_FFD2_N00861 FLASH_N00472 N00313 N00313
+  CMOSP  
+ L=.18u  
+ W=.2u         
R_FLASH_FFD2_NAND1_R1         FLASH_FFD2_Y 0  10Meg  
R_FLASH_FFD2_NAND1_R2         FLASH_N00472 0  10Meg  
M_FLASH_FFD2_NAND3_M1         FLASH_Q2 FLASH_FFD2_X FLASH_FFD2_NAND3_N00209
+  FLASH_FFD2_NAND3_N00209 CMOSN  
+ L=.18u  
+ W=.18u         
M_FLASH_FFD2_NAND3_M2         FLASH_FFD2_NAND3_N00209 FLASH_-Q2 0 0 CMOSN  
+ L=.18u  
+ W=.18u         
M_FLASH_FFD2_NAND3_M3         FLASH_Q2 FLASH_FFD2_X N00313 N00313 CMOSP  
+ L=.18u  
+ W=.2u         
M_FLASH_FFD2_NAND3_M4         FLASH_Q2 FLASH_-Q2 N00313 N00313 CMOSP  
+ L=.18u  
+ W=.2u         
R_FLASH_FFD2_NAND3_R1         FLASH_FFD2_X 0  10Meg  
R_FLASH_FFD2_NAND3_R2         FLASH_-Q2 0  10Meg  
M_FLASH_FFD2_NAND2_M1         FLASH_FFD2_X FLASH_FFD2_N00589
+  FLASH_FFD2_NAND2_N00209 FLASH_FFD2_NAND2_N00209 CMOSN  
+ L=.18u  
+ W=.18u         
M_FLASH_FFD2_NAND2_M2         FLASH_FFD2_NAND2_N00209 N03264 0 0 CMOSN  
+ L=.18u  
+ W=.18u         
M_FLASH_FFD2_NAND2_M3         FLASH_FFD2_X FLASH_FFD2_N00589 N00313 N00313
+  CMOSP  
+ L=.18u  
+ W=.2u         
M_FLASH_FFD2_NAND2_M4         FLASH_FFD2_X N03264 N00313 N00313 CMOSP  
+ L=.18u  
+ W=.2u         
R_FLASH_FFD2_NAND2_R1         FLASH_FFD2_N00589 0  10Meg  
R_FLASH_FFD2_NAND2_R2         N03264 0  10Meg  
M_FLASH_FFD2_NAND4_M1         FLASH_-Q2 FLASH_Q2 FLASH_FFD2_NAND4_N00209
+  FLASH_FFD2_NAND4_N00209 CMOSN  
+ L=.18u  
+ W=.18u         
M_FLASH_FFD2_NAND4_M2         FLASH_FFD2_NAND4_N00209 FLASH_FFD2_Y 0 0 CMOSN  
+ L=.18u  
+ W=.18u         
M_FLASH_FFD2_NAND4_M3         FLASH_-Q2 FLASH_Q2 N00313 N00313 CMOSP  
+ L=.18u  
+ W=.2u         
M_FLASH_FFD2_NAND4_M4         FLASH_-Q2 FLASH_FFD2_Y N00313 N00313 CMOSP  
+ L=.18u  
+ W=.2u         
R_FLASH_FFD2_NAND4_R1         FLASH_Q2 0  10Meg  
R_FLASH_FFD2_NAND4_R2         FLASH_FFD2_Y 0  10Meg  
C_FLASH_FFD3_C3         0 FLASH_FFD3_Y  10p  
M_FLASH_FFD3_NAND_M1         FLASH_FFD3_N00589 FLASH_FFD3_N00861
+  FLASH_FFD3_NAND_N00209 FLASH_FFD3_NAND_N00209 CMOSN  
+ L=.18u  
+ W=.18u         
M_FLASH_FFD3_NAND_M2         FLASH_FFD3_NAND_N00209 FLASH_FFD3_X 0 0 CMOSN  
+ L=.18u  
+ W=.18u         
M_FLASH_FFD3_NAND_M3         FLASH_FFD3_N00589 FLASH_FFD3_N00861 N00313 N00313
+  CMOSP  
+ L=.18u  
+ W=.2u         
M_FLASH_FFD3_NAND_M4         FLASH_FFD3_N00589 FLASH_FFD3_X N00313 N00313 CMOSP
+   
+ L=.18u  
+ W=.2u         
R_FLASH_FFD3_NAND_R1         FLASH_FFD3_N00861 0  10Meg  
R_FLASH_FFD3_NAND_R2         FLASH_FFD3_X 0  10Meg  
M_FLASH_FFD3_NAND-3_M2         FLASH_FFD3_NAND-3_N05674 N03264
+  FLASH_FFD3_NAND-3_N05700 FLASH_FFD3_NAND-3_N05700 CMOSN  
+ L=.18u  
+ W=.18u         
M_FLASH_FFD3_NAND-3_M3         FLASH_FFD3_Y FLASH_FFD3_X N00313 N00313 CMOSP  
+ L=.18u  
+ W=.2u         
M_FLASH_FFD3_NAND-3_M5         FLASH_FFD3_Y FLASH_FFD3_N00861 N00313 N00313
+  CMOSP  
+ L=.18u  
+ W=.2u         
M_FLASH_FFD3_NAND-3_M4         FLASH_FFD3_Y N03264 N00313 N00313 CMOSP  
+ L=.18u  
+ W=.2u         
M_FLASH_FFD3_NAND-3_M6         FLASH_FFD3_NAND-3_N05700 FLASH_FFD3_N00861 0 0
+  CMOSN  
+ L=.18u  
+ W=.18u         
M_FLASH_FFD3_NAND-3_M1         FLASH_FFD3_Y FLASH_FFD3_X
+  FLASH_FFD3_NAND-3_N05674 FLASH_FFD3_NAND-3_N05674 CMOSN  
+ L=.18u  
+ W=.18u         
M_FLASH_FFD3_NAND1_M1         FLASH_FFD3_N00861 FLASH_FFD3_Y
+  FLASH_FFD3_NAND1_N00209 FLASH_FFD3_NAND1_N00209 CMOSN  
+ L=.18u  
+ W=.18u         
M_FLASH_FFD3_NAND1_M2         FLASH_FFD3_NAND1_N00209 FLASH_N00460 0 0 CMOSN  
+ L=.18u  
+ W=.18u         
M_FLASH_FFD3_NAND1_M3         FLASH_FFD3_N00861 FLASH_FFD3_Y N00313 N00313
+  CMOSP  
+ L=.18u  
+ W=.2u         
M_FLASH_FFD3_NAND1_M4         FLASH_FFD3_N00861 FLASH_N00460 N00313 N00313
+  CMOSP  
+ L=.18u  
+ W=.2u         
R_FLASH_FFD3_NAND1_R1         FLASH_FFD3_Y 0  10Meg  
R_FLASH_FFD3_NAND1_R2         FLASH_N00460 0  10Meg  
M_FLASH_FFD3_NAND3_M1         FLASH_Q3 FLASH_FFD3_X FLASH_FFD3_NAND3_N00209
+  FLASH_FFD3_NAND3_N00209 CMOSN  
+ L=.18u  
+ W=.18u         
M_FLASH_FFD3_NAND3_M2         FLASH_FFD3_NAND3_N00209 FLASH_-Q3 0 0 CMOSN  
+ L=.18u  
+ W=.18u         
M_FLASH_FFD3_NAND3_M3         FLASH_Q3 FLASH_FFD3_X N00313 N00313 CMOSP  
+ L=.18u  
+ W=.2u         
M_FLASH_FFD3_NAND3_M4         FLASH_Q3 FLASH_-Q3 N00313 N00313 CMOSP  
+ L=.18u  
+ W=.2u         
R_FLASH_FFD3_NAND3_R1         FLASH_FFD3_X 0  10Meg  
R_FLASH_FFD3_NAND3_R2         FLASH_-Q3 0  10Meg  
M_FLASH_FFD3_NAND2_M1         FLASH_FFD3_X FLASH_FFD3_N00589
+  FLASH_FFD3_NAND2_N00209 FLASH_FFD3_NAND2_N00209 CMOSN  
+ L=.18u  
+ W=.18u         
M_FLASH_FFD3_NAND2_M2         FLASH_FFD3_NAND2_N00209 N03264 0 0 CMOSN  
+ L=.18u  
+ W=.18u         
M_FLASH_FFD3_NAND2_M3         FLASH_FFD3_X FLASH_FFD3_N00589 N00313 N00313
+  CMOSP  
+ L=.18u  
+ W=.2u         
M_FLASH_FFD3_NAND2_M4         FLASH_FFD3_X N03264 N00313 N00313 CMOSP  
+ L=.18u  
+ W=.2u         
R_FLASH_FFD3_NAND2_R1         FLASH_FFD3_N00589 0  10Meg  
R_FLASH_FFD3_NAND2_R2         N03264 0  10Meg  
M_FLASH_FFD3_NAND4_M1         FLASH_-Q3 FLASH_Q3 FLASH_FFD3_NAND4_N00209
+  FLASH_FFD3_NAND4_N00209 CMOSN  
+ L=.18u  
+ W=.18u         
M_FLASH_FFD3_NAND4_M2         FLASH_FFD3_NAND4_N00209 FLASH_FFD3_Y 0 0 CMOSN  
+ L=.18u  
+ W=.18u         
M_FLASH_FFD3_NAND4_M3         FLASH_-Q3 FLASH_Q3 N00313 N00313 CMOSP  
+ L=.18u  
+ W=.2u         
M_FLASH_FFD3_NAND4_M4         FLASH_-Q3 FLASH_FFD3_Y N00313 N00313 CMOSP  
+ L=.18u  
+ W=.2u         
R_FLASH_FFD3_NAND4_R1         FLASH_Q3 0  10Meg  
R_FLASH_FFD3_NAND4_R2         FLASH_FFD3_Y 0  10Meg  
M_FLASH_C1_M4         FLASH_C1_N26867 FLASH_C1_N27085 N00313 N00313 CMOSP  
+ L=.2u  
+ W=.6u         
M_FLASH_C1_M5         FLASH_C1_N27149 N00862 0 0 CMOSN  
+ L=.2u  
+ W=.6u         
M_FLASH_C1_M6         FLASH_N00486 FLASH_C1_N26867 N00313 N00313 CMOSP  
+ L=.2u  
+ W=.8u         
M_FLASH_C1_M7         FLASH_N00486 N00862 0 0 CMOSN  
+ L=.2u  
+ W=.4u         
M_FLASH_C1_M1         FLASH_C1_N27085 VA FLASH_C1_N27149 0 CMOSN  
+ L=.2u  
+ W=.4u         
M_FLASH_C1_M2         FLASH_C1_N26867 C1 FLASH_C1_N27149 0 CMOSN  
+ L=.2u  
+ W=.4u         
M_FLASH_C1_M3         FLASH_C1_N27085 FLASH_C1_N27085 N00313 N00313 CMOSP  
+ L=.2u  
+ W=.6u         
M_FLASH_C2_M4         FLASH_C2_N26867 FLASH_C2_N27085 N00313 N00313 CMOSP  
+ L=.2u  
+ W=.6u         
M_FLASH_C2_M5         FLASH_C2_N27149 N00862 0 0 CMOSN  
+ L=.2u  
+ W=.6u         
M_FLASH_C2_M6         FLASH_N00472 FLASH_C2_N26867 N00313 N00313 CMOSP  
+ L=.2u  
+ W=.8u         
M_FLASH_C2_M7         FLASH_N00472 N00862 0 0 CMOSN  
+ L=.2u  
+ W=.4u         
M_FLASH_C2_M1         FLASH_C2_N27085 VA FLASH_C2_N27149 0 CMOSN  
+ L=.2u  
+ W=.4u         
M_FLASH_C2_M2         FLASH_C2_N26867 C2 FLASH_C2_N27149 0 CMOSN  
+ L=.2u  
+ W=.4u         
M_FLASH_C2_M3         FLASH_C2_N27085 FLASH_C2_N27085 N00313 N00313 CMOSP  
+ L=.2u  
+ W=.6u         
C_FLASH_FFD4_C3         0 FLASH_FFD4_Y  10p  
M_FLASH_FFD4_NAND_M1         FLASH_FFD4_N00589 FLASH_FFD4_N00861
+  FLASH_FFD4_NAND_N00209 FLASH_FFD4_NAND_N00209 CMOSN  
+ L=.18u  
+ W=.18u         
M_FLASH_FFD4_NAND_M2         FLASH_FFD4_NAND_N00209 FLASH_FFD4_X 0 0 CMOSN  
+ L=.18u  
+ W=.18u         
M_FLASH_FFD4_NAND_M3         FLASH_FFD4_N00589 FLASH_FFD4_N00861 N00313 N00313
+  CMOSP  
+ L=.18u  
+ W=.2u         
M_FLASH_FFD4_NAND_M4         FLASH_FFD4_N00589 FLASH_FFD4_X N00313 N00313 CMOSP
+   
+ L=.18u  
+ W=.2u         
R_FLASH_FFD4_NAND_R1         FLASH_FFD4_N00861 0  10Meg  
R_FLASH_FFD4_NAND_R2         FLASH_FFD4_X 0  10Meg  
M_FLASH_FFD4_NAND-3_M2         FLASH_FFD4_NAND-3_N05674 N03264
+  FLASH_FFD4_NAND-3_N05700 FLASH_FFD4_NAND-3_N05700 CMOSN  
+ L=.18u  
+ W=.18u         
M_FLASH_FFD4_NAND-3_M3         FLASH_FFD4_Y FLASH_FFD4_X N00313 N00313 CMOSP  
+ L=.18u  
+ W=.2u         
M_FLASH_FFD4_NAND-3_M5         FLASH_FFD4_Y FLASH_FFD4_N00861 N00313 N00313
+  CMOSP  
+ L=.18u  
+ W=.2u         
M_FLASH_FFD4_NAND-3_M4         FLASH_FFD4_Y N03264 N00313 N00313 CMOSP  
+ L=.18u  
+ W=.2u         
M_FLASH_FFD4_NAND-3_M6         FLASH_FFD4_NAND-3_N05700 FLASH_FFD4_N00861 0 0
+  CMOSN  
+ L=.18u  
+ W=.18u         
M_FLASH_FFD4_NAND-3_M1         FLASH_FFD4_Y FLASH_FFD4_X
+  FLASH_FFD4_NAND-3_N05674 FLASH_FFD4_NAND-3_N05674 CMOSN  
+ L=.18u  
+ W=.18u         
M_FLASH_FFD4_NAND1_M1         FLASH_FFD4_N00861 FLASH_FFD4_Y
+  FLASH_FFD4_NAND1_N00209 FLASH_FFD4_NAND1_N00209 CMOSN  
+ L=.18u  
+ W=.18u         
M_FLASH_FFD4_NAND1_M2         FLASH_FFD4_NAND1_N00209 FLASH_N00450 0 0 CMOSN  
+ L=.18u  
+ W=.18u         
M_FLASH_FFD4_NAND1_M3         FLASH_FFD4_N00861 FLASH_FFD4_Y N00313 N00313
+  CMOSP  
+ L=.18u  
+ W=.2u         
M_FLASH_FFD4_NAND1_M4         FLASH_FFD4_N00861 FLASH_N00450 N00313 N00313
+  CMOSP  
+ L=.18u  
+ W=.2u         
R_FLASH_FFD4_NAND1_R1         FLASH_FFD4_Y 0  10Meg  
R_FLASH_FFD4_NAND1_R2         FLASH_N00450 0  10Meg  
M_FLASH_FFD4_NAND3_M1         FLASH_Q4 FLASH_FFD4_X FLASH_FFD4_NAND3_N00209
+  FLASH_FFD4_NAND3_N00209 CMOSN  
+ L=.18u  
+ W=.18u         
M_FLASH_FFD4_NAND3_M2         FLASH_FFD4_NAND3_N00209 FLASH_-Q4 0 0 CMOSN  
+ L=.18u  
+ W=.18u         
M_FLASH_FFD4_NAND3_M3         FLASH_Q4 FLASH_FFD4_X N00313 N00313 CMOSP  
+ L=.18u  
+ W=.2u         
M_FLASH_FFD4_NAND3_M4         FLASH_Q4 FLASH_-Q4 N00313 N00313 CMOSP  
+ L=.18u  
+ W=.2u         
R_FLASH_FFD4_NAND3_R1         FLASH_FFD4_X 0  10Meg  
R_FLASH_FFD4_NAND3_R2         FLASH_-Q4 0  10Meg  
M_FLASH_FFD4_NAND2_M1         FLASH_FFD4_X FLASH_FFD4_N00589
+  FLASH_FFD4_NAND2_N00209 FLASH_FFD4_NAND2_N00209 CMOSN  
+ L=.18u  
+ W=.18u         
M_FLASH_FFD4_NAND2_M2         FLASH_FFD4_NAND2_N00209 N03264 0 0 CMOSN  
+ L=.18u  
+ W=.18u         
M_FLASH_FFD4_NAND2_M3         FLASH_FFD4_X FLASH_FFD4_N00589 N00313 N00313
+  CMOSP  
+ L=.18u  
+ W=.2u         
M_FLASH_FFD4_NAND2_M4         FLASH_FFD4_X N03264 N00313 N00313 CMOSP  
+ L=.18u  
+ W=.2u         
R_FLASH_FFD4_NAND2_R1         FLASH_FFD4_N00589 0  10Meg  
R_FLASH_FFD4_NAND2_R2         N03264 0  10Meg  
M_FLASH_FFD4_NAND4_M1         FLASH_-Q4 FLASH_Q4 FLASH_FFD4_NAND4_N00209
+  FLASH_FFD4_NAND4_N00209 CMOSN  
+ L=.18u  
+ W=.18u         
M_FLASH_FFD4_NAND4_M2         FLASH_FFD4_NAND4_N00209 FLASH_FFD4_Y 0 0 CMOSN  
+ L=.18u  
+ W=.18u         
M_FLASH_FFD4_NAND4_M3         FLASH_-Q4 FLASH_Q4 N00313 N00313 CMOSP  
+ L=.18u  
+ W=.2u         
M_FLASH_FFD4_NAND4_M4         FLASH_-Q4 FLASH_FFD4_Y N00313 N00313 CMOSP  
+ L=.18u  
+ W=.2u         
R_FLASH_FFD4_NAND4_R1         FLASH_Q4 0  10Meg  
R_FLASH_FFD4_NAND4_R2         FLASH_FFD4_Y 0  10Meg  
M_FLASH_C3_M4         FLASH_C3_N26867 FLASH_C3_N27085 N00313 N00313 CMOSP  
+ L=.2u  
+ W=.6u         
M_FLASH_C3_M5         FLASH_C3_N27149 N00862 0 0 CMOSN  
+ L=.2u  
+ W=.6u         
M_FLASH_C3_M6         FLASH_N00460 FLASH_C3_N26867 N00313 N00313 CMOSP  
+ L=.2u  
+ W=.8u         
M_FLASH_C3_M7         FLASH_N00460 N00862 0 0 CMOSN  
+ L=.2u  
+ W=.4u         
M_FLASH_C3_M1         FLASH_C3_N27085 VA FLASH_C3_N27149 0 CMOSN  
+ L=.2u  
+ W=.4u         
M_FLASH_C3_M2         FLASH_C3_N26867 C3 FLASH_C3_N27149 0 CMOSN  
+ L=.2u  
+ W=.4u         
M_FLASH_C3_M3         FLASH_C3_N27085 FLASH_C3_N27085 N00313 N00313 CMOSP  
+ L=.2u  
+ W=.6u         
M_FLASH_C4_M4         FLASH_C4_N26867 FLASH_C4_N27085 N00313 N00313 CMOSP  
+ L=.2u  
+ W=.6u         
M_FLASH_C4_M5         FLASH_C4_N27149 N00862 0 0 CMOSN  
+ L=.2u  
+ W=.6u         
M_FLASH_C4_M6         FLASH_N00450 FLASH_C4_N26867 N00313 N00313 CMOSP  
+ L=.2u  
+ W=.8u         
M_FLASH_C4_M7         FLASH_N00450 N00862 0 0 CMOSN  
+ L=.2u  
+ W=.4u         
M_FLASH_C4_M1         FLASH_C4_N27085 VA FLASH_C4_N27149 0 CMOSN  
+ L=.2u  
+ W=.4u         
M_FLASH_C4_M2         FLASH_C4_N26867 C4 FLASH_C4_N27149 0 CMOSN  
+ L=.2u  
+ W=.4u         
M_FLASH_C4_M3         FLASH_C4_N27085 FLASH_C4_N27085 N00313 N00313 CMOSP  
+ L=.2u  
+ W=.6u         
R_FLASH_U2_7-NAND1_R4         FLASH_-Q4 0  10Meg  
M_FLASH_U2_7-NAND1_M2         FLASH_U2_7-NAND1_N38454 FLASH_Q6
+  FLASH_U2_7-NAND1_N38740 0 CMOSN  
+ L=.18u  
+ W=.18u         
M_FLASH_U2_7-NAND1_M6         FLASH_U2_7-NAND1_N38740 FLASH_Q5
+  FLASH_U2_7-NAND1_N38778 0 CMOSN  
+ L=.18u  
+ W=.18u         
M_FLASH_U2_7-NAND1_M8         FLASH_U2_LSB-2 FLASH_-Q2 N00313 N00313 CMOSP  
+ L=.18u  
+ W=.2u         
M_FLASH_U2_7-NAND1_M14         FLASH_U2_7-NAND1_N43125 FLASH_-Q1 0 0 CMOSN  
+ L=.18u  
+ W=.18u         
M_FLASH_U2_7-NAND1_M11         FLASH_U2_LSB-2 FLASH_Q7 N00313 N00313 CMOSP  
+ L=.18u  
+ W=.2u         
R_FLASH_U2_7-NAND1_R7         FLASH_-Q1 0  10Meg  
M_FLASH_U2_7-NAND1_M3         FLASH_U2_LSB-2 FLASH_Q6 N00313 N00313 CMOSP  
+ L=.18u  
+ W=.2u         
R_FLASH_U2_7-NAND1_R1         FLASH_Q7 0  10Meg  
M_FLASH_U2_7-NAND1_M4         FLASH_U2_LSB-2 FLASH_Q5 N00313 N00313 CMOSP  
+ L=.18u  
+ W=.2u         
R_FLASH_U2_7-NAND1_R2         FLASH_Q6 0  10Meg  
R_FLASH_U2_7-NAND1_R5         FLASH_-Q3 0  10Meg  
R_FLASH_U2_7-NAND1_R3         FLASH_Q5 0  10Meg  
M_FLASH_U2_7-NAND1_M13         FLASH_U2_7-NAND1_N43046 FLASH_-Q2
+  FLASH_U2_7-NAND1_N43125 0 CMOSN  
+ L=.18u  
+ W=.18u         
M_FLASH_U2_7-NAND1_M9         FLASH_U2_LSB-2 FLASH_-Q3 N00313 N00313 CMOSP  
+ L=.18u  
+ W=.2u         
R_FLASH_U2_7-NAND1_R6         FLASH_-Q2 0  10Meg  
M_FLASH_U2_7-NAND1_M12         FLASH_U2_LSB-2 FLASH_-Q4 N00313 N00313 CMOSP  
+ L=.18u  
+ W=.2u         
M_FLASH_U2_7-NAND1_M7         FLASH_U2_7-NAND1_N38778 FLASH_-Q4
+  FLASH_U2_7-NAND1_N39060 0 CMOSN  
+ L=.18u  
+ W=.18u         
M_FLASH_U2_7-NAND1_M5         FLASH_U2_LSB-2 FLASH_-Q1 N00313 N00313 CMOSP  
+ L=.18u  
+ W=.2u         
M_FLASH_U2_7-NAND1_M1         FLASH_U2_LSB-2 FLASH_Q7 FLASH_U2_7-NAND1_N38454 0
+  CMOSN  
+ L=.18u  
+ W=.18u         
M_FLASH_U2_7-NAND1_M10         FLASH_U2_7-NAND1_N39060 FLASH_-Q3
+  FLASH_U2_7-NAND1_N43046 0 CMOSN  
+ L=.18u  
+ W=.18u         
R_FLASH_U2_7-NAND_R4         FLASH_-Q4 0  10Meg  
M_FLASH_U2_7-NAND_M2         FLASH_U2_7-NAND_N38454 FLASH_-Q6
+  FLASH_U2_7-NAND_N38740 0 CMOSN  
+ L=.18u  
+ W=.18u         
M_FLASH_U2_7-NAND_M6         FLASH_U2_7-NAND_N38740 FLASH_-Q5
+  FLASH_U2_7-NAND_N38778 0 CMOSN  
+ L=.18u  
+ W=.18u         
M_FLASH_U2_7-NAND_M8         FLASH_U2_LSB-1 FLASH_-Q2 N00313 N00313 CMOSP  
+ L=.18u  
+ W=.2u         
M_FLASH_U2_7-NAND_M14         FLASH_U2_7-NAND_N43125 FLASH_-Q1 0 0 CMOSN  
+ L=.18u  
+ W=.18u         
M_FLASH_U2_7-NAND_M11         FLASH_U2_LSB-1 FLASH_Q7 N00313 N00313 CMOSP  
+ L=.18u  
+ W=.2u         
R_FLASH_U2_7-NAND_R7         FLASH_-Q1 0  10Meg  
M_FLASH_U2_7-NAND_M3         FLASH_U2_LSB-1 FLASH_-Q6 N00313 N00313 CMOSP  
+ L=.18u  
+ W=.2u         
R_FLASH_U2_7-NAND_R1         FLASH_Q7 0  10Meg  
M_FLASH_U2_7-NAND_M4         FLASH_U2_LSB-1 FLASH_-Q5 N00313 N00313 CMOSP  
+ L=.18u  
+ W=.2u         
R_FLASH_U2_7-NAND_R2         FLASH_-Q6 0  10Meg  
R_FLASH_U2_7-NAND_R5         FLASH_-Q3 0  10Meg  
R_FLASH_U2_7-NAND_R3         FLASH_-Q5 0  10Meg  
M_FLASH_U2_7-NAND_M13         FLASH_U2_7-NAND_N43046 FLASH_-Q2
+  FLASH_U2_7-NAND_N43125 0 CMOSN  
+ L=.18u  
+ W=.18u         
M_FLASH_U2_7-NAND_M9         FLASH_U2_LSB-1 FLASH_-Q3 N00313 N00313 CMOSP  
+ L=.18u  
+ W=.2u         
R_FLASH_U2_7-NAND_R6         FLASH_-Q2 0  10Meg  
M_FLASH_U2_7-NAND_M12         FLASH_U2_LSB-1 FLASH_-Q4 N00313 N00313 CMOSP  
+ L=.18u  
+ W=.2u         
M_FLASH_U2_7-NAND_M7         FLASH_U2_7-NAND_N38778 FLASH_-Q4
+  FLASH_U2_7-NAND_N39060 0 CMOSN  
+ L=.18u  
+ W=.18u         
M_FLASH_U2_7-NAND_M5         FLASH_U2_LSB-1 FLASH_-Q1 N00313 N00313 CMOSP  
+ L=.18u  
+ W=.2u         
M_FLASH_U2_7-NAND_M1         FLASH_U2_LSB-1 FLASH_Q7 FLASH_U2_7-NAND_N38454 0
+  CMOSN  
+ L=.18u  
+ W=.18u         
M_FLASH_U2_7-NAND_M10         FLASH_U2_7-NAND_N39060 FLASH_-Q3
+  FLASH_U2_7-NAND_N43046 0 CMOSN  
+ L=.18u  
+ W=.18u         
R_FLASH_U2_R4         FLASH_U2_N58394 0  10Meg  
R_FLASH_U2_7-NAND2_R4         FLASH_Q4 0  10Meg  
M_FLASH_U2_7-NAND2_M2         FLASH_U2_7-NAND2_N38454 FLASH_Q6
+  FLASH_U2_7-NAND2_N38740 0 CMOSN  
+ L=.18u  
+ W=.18u         
M_FLASH_U2_7-NAND2_M6         FLASH_U2_7-NAND2_N38740 FLASH_Q5
+  FLASH_U2_7-NAND2_N38778 0 CMOSN  
+ L=.18u  
+ W=.18u         
M_FLASH_U2_7-NAND2_M8         FLASH_U2_LSB-3 FLASH_-Q2 N00313 N00313 CMOSP  
+ L=.18u  
+ W=.2u         
M_FLASH_U2_7-NAND2_M14         FLASH_U2_7-NAND2_N43125 FLASH_-Q1 0 0 CMOSN  
+ L=.18u  
+ W=.18u         
M_FLASH_U2_7-NAND2_M11         FLASH_U2_LSB-3 FLASH_Q7 N00313 N00313 CMOSP  
+ L=.18u  
+ W=.2u         
R_FLASH_U2_7-NAND2_R7         FLASH_-Q1 0  10Meg  
M_FLASH_U2_7-NAND2_M3         FLASH_U2_LSB-3 FLASH_Q6 N00313 N00313 CMOSP  
+ L=.18u  
+ W=.2u         
R_FLASH_U2_7-NAND2_R1         FLASH_Q7 0  10Meg  
M_FLASH_U2_7-NAND2_M4         FLASH_U2_LSB-3 FLASH_Q5 N00313 N00313 CMOSP  
+ L=.18u  
+ W=.2u         
R_FLASH_U2_7-NAND2_R2         FLASH_Q6 0  10Meg  
R_FLASH_U2_7-NAND2_R5         FLASH_Q3 0  10Meg  
R_FLASH_U2_7-NAND2_R3         FLASH_Q5 0  10Meg  
M_FLASH_U2_7-NAND2_M13         FLASH_U2_7-NAND2_N43046 FLASH_-Q2
+  FLASH_U2_7-NAND2_N43125 0 CMOSN  
+ L=.18u  
+ W=.18u         
M_FLASH_U2_7-NAND2_M9         FLASH_U2_LSB-3 FLASH_Q3 N00313 N00313 CMOSP  
+ L=.18u  
+ W=.2u         
R_FLASH_U2_7-NAND2_R6         FLASH_-Q2 0  10Meg  
M_FLASH_U2_7-NAND2_M12         FLASH_U2_LSB-3 FLASH_Q4 N00313 N00313 CMOSP  
+ L=.18u  
+ W=.2u         
M_FLASH_U2_7-NAND2_M7         FLASH_U2_7-NAND2_N38778 FLASH_Q4
+  FLASH_U2_7-NAND2_N39060 0 CMOSN  
+ L=.18u  
+ W=.18u         
M_FLASH_U2_7-NAND2_M5         FLASH_U2_LSB-3 FLASH_-Q1 N00313 N00313 CMOSP  
+ L=.18u  
+ W=.2u         
M_FLASH_U2_7-NAND2_M1         FLASH_U2_LSB-3 FLASH_Q7 FLASH_U2_7-NAND2_N38454 0
+  CMOSN  
+ L=.18u  
+ W=.18u         
M_FLASH_U2_7-NAND2_M10         FLASH_U2_7-NAND2_N39060 FLASH_Q3
+  FLASH_U2_7-NAND2_N43046 0 CMOSN  
+ L=.18u  
+ W=.18u         
R_FLASH_U2_4-NAND_R3         FLASH_U2_LSB-3 0  10Meg  
M_FLASH_U2_4-NAND_M1         LSB FLASH_U2_LSB-1 FLASH_U2_4-NAND_N28403 0 CMOSN 
+  
+ L=.18u  
+ W=.18u         
M_FLASH_U2_4-NAND_M5         LSB FLASH_U2_LSB-3 N00313 N00313 CMOSP  
+ L=.18u  
+ W=.2u         
R_FLASH_U2_4-NAND_R4         FLASH_U2_LSB-4 0  10Meg  
M_FLASH_U2_4-NAND_M2         FLASH_U2_4-NAND_N28403 FLASH_U2_LSB-2
+  FLASH_U2_4-NAND_N28818 0 CMOSN  
+ L=.18u  
+ W=.18u         
M_FLASH_U2_4-NAND_M3         LSB FLASH_U2_LSB-1 N00313 N00313 CMOSP  
+ L=.18u  
+ W=.2u         
M_FLASH_U2_4-NAND_M6         FLASH_U2_4-NAND_N28818 FLASH_U2_LSB-3
+  FLASH_U2_4-NAND_N29978 0 CMOSN  
+ L=.18u  
+ W=.18u         
M_FLASH_U2_4-NAND_M7         FLASH_U2_4-NAND_N29978 FLASH_U2_LSB-4 0 0 CMOSN  
+ L=.18u  
+ W=.18u         
M_FLASH_U2_4-NAND_M4         LSB FLASH_U2_LSB-2 N00313 N00313 CMOSP  
+ L=.18u  
+ W=.2u         
M_FLASH_U2_4-NAND_M8         LSB FLASH_U2_LSB-4 N00313 N00313 CMOSP  
+ L=.18u  
+ W=.2u         
R_FLASH_U2_4-NAND_R1         FLASH_U2_LSB-1 0  10Meg  
R_FLASH_U2_4-NAND_R2         FLASH_U2_LSB-2 0  10Meg  
R_FLASH_U2_R3         MSB FLASH_U2_N58394  1  
M_FLASH_U2_2-NAND_M4         FLASH_U2_2SB-2 FLASH_-Q4 N00313 N00313 CMOSP  
+ L=.18u  
+ W=.2u         
M_FLASH_U2_2-NAND_M5         FLASH_U2_2SB-2 FLASH_Q6 N00313 N00313 CMOSP  
+ L=.18u  
+ W=.2u         
R_FLASH_U2_2-NAND_R2         0 FLASH_-Q4  10Meg  
R_FLASH_U2_2-NAND_R1         0 FLASH_Q6  10Meg  
M_FLASH_U2_2-NAND_M6         FLASH_U2_2SB-2 FLASH_Q6 FLASH_U2_2-NAND_N23681 0
+  CMOSN  
+ L=.18u  
+ W=.18u         
M_FLASH_U2_2-NAND_M2         FLASH_U2_2-NAND_N23681 FLASH_-Q4 0 0 CMOSN  
+ L=.18u  
+ W=.18u         
R_FLASH_U2_7-NAND3_R4         FLASH_Q4 0  10Meg  
M_FLASH_U2_7-NAND3_M2         FLASH_U2_7-NAND3_N38454 FLASH_Q6
+  FLASH_U2_7-NAND3_N38740 0 CMOSN  
+ L=.18u  
+ W=.18u         
M_FLASH_U2_7-NAND3_M6         FLASH_U2_7-NAND3_N38740 FLASH_Q5
+  FLASH_U2_7-NAND3_N38778 0 CMOSN  
+ L=.18u  
+ W=.18u         
M_FLASH_U2_7-NAND3_M8         FLASH_U2_LSB-4 FLASH_Q2 N00313 N00313 CMOSP  
+ L=.18u  
+ W=.2u         
M_FLASH_U2_7-NAND3_M14         FLASH_U2_7-NAND3_N43125 FLASH_Q1 0 0 CMOSN  
+ L=.18u  
+ W=.18u         
M_FLASH_U2_7-NAND3_M11         FLASH_U2_LSB-4 FLASH_Q7 N00313 N00313 CMOSP  
+ L=.18u  
+ W=.2u         
R_FLASH_U2_7-NAND3_R7         FLASH_Q1 0  10Meg  
M_FLASH_U2_7-NAND3_M3         FLASH_U2_LSB-4 FLASH_Q6 N00313 N00313 CMOSP  
+ L=.18u  
+ W=.2u         
R_FLASH_U2_7-NAND3_R1         FLASH_Q7 0  10Meg  
M_FLASH_U2_7-NAND3_M4         FLASH_U2_LSB-4 FLASH_Q5 N00313 N00313 CMOSP  
+ L=.18u  
+ W=.2u         
R_FLASH_U2_7-NAND3_R2         FLASH_Q6 0  10Meg  
R_FLASH_U2_7-NAND3_R5         FLASH_Q3 0  10Meg  
R_FLASH_U2_7-NAND3_R3         FLASH_Q5 0  10Meg  
M_FLASH_U2_7-NAND3_M13         FLASH_U2_7-NAND3_N43046 FLASH_Q2
+  FLASH_U2_7-NAND3_N43125 0 CMOSN  
+ L=.18u  
+ W=.18u         
M_FLASH_U2_7-NAND3_M9         FLASH_U2_LSB-4 FLASH_Q3 N00313 N00313 CMOSP  
+ L=.18u  
+ W=.2u         
R_FLASH_U2_7-NAND3_R6         FLASH_Q2 0  10Meg  
M_FLASH_U2_7-NAND3_M12         FLASH_U2_LSB-4 FLASH_Q4 N00313 N00313 CMOSP  
+ L=.18u  
+ W=.2u         
M_FLASH_U2_7-NAND3_M7         FLASH_U2_7-NAND3_N38778 FLASH_Q4
+  FLASH_U2_7-NAND3_N39060 0 CMOSN  
+ L=.18u  
+ W=.18u         
M_FLASH_U2_7-NAND3_M5         FLASH_U2_LSB-4 FLASH_Q1 N00313 N00313 CMOSP  
+ L=.18u  
+ W=.2u         
M_FLASH_U2_7-NAND3_M1         FLASH_U2_LSB-4 FLASH_Q7 FLASH_U2_7-NAND3_N38454 0
+  CMOSN  
+ L=.18u  
+ W=.18u         
M_FLASH_U2_7-NAND3_M10         FLASH_U2_7-NAND3_N39060 FLASH_Q3
+  FLASH_U2_7-NAND3_N43046 0 CMOSN  
+ L=.18u  
+ W=.18u         
M_FLASH_U2_5-NAND_M10         FLASH_U2_5-NAND_N36965 FLASH_Q2 0 0 CMOSN  
+ L=.18u  
+ W=.18u         
M_FLASH_U2_5-NAND_M4         FLASH_U2_2SB-1 FLASH_Q6 N00313 N00313 CMOSP  
+ L=.18u  
+ W=.2u         
R_FLASH_U2_5-NAND_R1         FLASH_Q7 0  10Meg  
R_FLASH_U2_5-NAND_R2         FLASH_Q6 0  10Meg  
R_FLASH_U2_5-NAND_R3         FLASH_Q5 0  10Meg  
M_FLASH_U2_5-NAND_M7         FLASH_U2_5-NAND_N33879 FLASH_Q3
+  FLASH_U2_5-NAND_N36965 0 CMOSN  
+ L=.18u  
+ W=.18u         
M_FLASH_U2_5-NAND_M5         FLASH_U2_2SB-1 FLASH_Q5 N00313 N00313 CMOSP  
+ L=.18u  
+ W=.2u         
M_FLASH_U2_5-NAND_M1         FLASH_U2_2SB-1 FLASH_Q7 FLASH_U2_5-NAND_N33539 0
+  CMOSN  
+ L=.18u  
+ W=.18u         
M_FLASH_U2_5-NAND_M2         FLASH_U2_5-NAND_N33539 FLASH_Q6
+  FLASH_U2_5-NAND_N33841 0 CMOSN  
+ L=.18u  
+ W=.18u         
M_FLASH_U2_5-NAND_M6         FLASH_U2_5-NAND_N33841 FLASH_Q5
+  FLASH_U2_5-NAND_N33879 0 CMOSN  
+ L=.18u  
+ W=.18u         
R_FLASH_U2_5-NAND_R4         FLASH_Q3 0  10Meg  
R_FLASH_U2_5-NAND_R5         FLASH_Q2 0  10Meg  
M_FLASH_U2_5-NAND_M3         FLASH_U2_2SB-1 FLASH_Q7 N00313 N00313 CMOSP  
+ L=.18u  
+ W=.2u         
M_FLASH_U2_5-NAND_M8         FLASH_U2_2SB-1 FLASH_Q3 N00313 N00313 CMOSP  
+ L=.18u  
+ W=.2u         
M_FLASH_U2_5-NAND_M9         FLASH_U2_2SB-1 FLASH_Q2 N00313 N00313 CMOSP  
+ L=.18u  
+ W=.2u         
R_FLASH_U2_R2         FLASH_U2_N58394 FLASH_Q4  1  
M_FLASH_U2_2-NAND1_M4         2SB FLASH_U2_2SB-2 N00313 N00313 CMOSP  
+ L=.18u  
+ W=.2u         
M_FLASH_U2_2-NAND1_M5         2SB FLASH_U2_2SB-1 N00313 N00313 CMOSP  
+ L=.18u  
+ W=.2u         
R_FLASH_U2_2-NAND1_R2         0 FLASH_U2_2SB-2  10Meg  
R_FLASH_U2_2-NAND1_R1         0 FLASH_U2_2SB-1  10Meg  
M_FLASH_U2_2-NAND1_M6         2SB FLASH_U2_2SB-1 FLASH_U2_2-NAND1_N23681 0
+  CMOSN  
+ L=.18u  
+ W=.18u         
M_FLASH_U2_2-NAND1_M2         FLASH_U2_2-NAND1_N23681 FLASH_U2_2SB-2 0 0 CMOSN 
+  
+ L=.18u  
+ W=.18u         
C_FLASH_FFD5_C3         0 FLASH_FFD5_Y  10p  
M_FLASH_FFD5_NAND_M1         FLASH_FFD5_N00589 FLASH_FFD5_N00861
+  FLASH_FFD5_NAND_N00209 FLASH_FFD5_NAND_N00209 CMOSN  
+ L=.18u  
+ W=.18u         
M_FLASH_FFD5_NAND_M2         FLASH_FFD5_NAND_N00209 FLASH_FFD5_X 0 0 CMOSN  
+ L=.18u  
+ W=.18u         
M_FLASH_FFD5_NAND_M3         FLASH_FFD5_N00589 FLASH_FFD5_N00861 N00313 N00313
+  CMOSP  
+ L=.18u  
+ W=.2u         
M_FLASH_FFD5_NAND_M4         FLASH_FFD5_N00589 FLASH_FFD5_X N00313 N00313 CMOSP
+   
+ L=.18u  
+ W=.2u         
R_FLASH_FFD5_NAND_R1         FLASH_FFD5_N00861 0  10Meg  
R_FLASH_FFD5_NAND_R2         FLASH_FFD5_X 0  10Meg  
M_FLASH_FFD5_NAND-3_M2         FLASH_FFD5_NAND-3_N05674 N03264
+  FLASH_FFD5_NAND-3_N05700 FLASH_FFD5_NAND-3_N05700 CMOSN  
+ L=.18u  
+ W=.18u         
M_FLASH_FFD5_NAND-3_M3         FLASH_FFD5_Y FLASH_FFD5_X N00313 N00313 CMOSP  
+ L=.18u  
+ W=.2u         
M_FLASH_FFD5_NAND-3_M5         FLASH_FFD5_Y FLASH_FFD5_N00861 N00313 N00313
+  CMOSP  
+ L=.18u  
+ W=.2u         
M_FLASH_FFD5_NAND-3_M4         FLASH_FFD5_Y N03264 N00313 N00313 CMOSP  
+ L=.18u  
+ W=.2u         
M_FLASH_FFD5_NAND-3_M6         FLASH_FFD5_NAND-3_N05700 FLASH_FFD5_N00861 0 0
+  CMOSN  
+ L=.18u  
+ W=.18u         
M_FLASH_FFD5_NAND-3_M1         FLASH_FFD5_Y FLASH_FFD5_X
+  FLASH_FFD5_NAND-3_N05674 FLASH_FFD5_NAND-3_N05674 CMOSN  
+ L=.18u  
+ W=.18u         
M_FLASH_FFD5_NAND1_M1         FLASH_FFD5_N00861 FLASH_FFD5_Y
+  FLASH_FFD5_NAND1_N00209 FLASH_FFD5_NAND1_N00209 CMOSN  
+ L=.18u  
+ W=.18u         
M_FLASH_FFD5_NAND1_M2         FLASH_FFD5_NAND1_N00209 FLASH_N00442 0 0 CMOSN  
+ L=.18u  
+ W=.18u         
M_FLASH_FFD5_NAND1_M3         FLASH_FFD5_N00861 FLASH_FFD5_Y N00313 N00313
+  CMOSP  
+ L=.18u  
+ W=.2u         
M_FLASH_FFD5_NAND1_M4         FLASH_FFD5_N00861 FLASH_N00442 N00313 N00313
+  CMOSP  
+ L=.18u  
+ W=.2u         
R_FLASH_FFD5_NAND1_R1         FLASH_FFD5_Y 0  10Meg  
R_FLASH_FFD5_NAND1_R2         FLASH_N00442 0  10Meg  
M_FLASH_FFD5_NAND3_M1         FLASH_Q5 FLASH_FFD5_X FLASH_FFD5_NAND3_N00209
+  FLASH_FFD5_NAND3_N00209 CMOSN  
+ L=.18u  
+ W=.18u         
M_FLASH_FFD5_NAND3_M2         FLASH_FFD5_NAND3_N00209 FLASH_-Q5 0 0 CMOSN  
+ L=.18u  
+ W=.18u         
M_FLASH_FFD5_NAND3_M3         FLASH_Q5 FLASH_FFD5_X N00313 N00313 CMOSP  
+ L=.18u  
+ W=.2u         
M_FLASH_FFD5_NAND3_M4         FLASH_Q5 FLASH_-Q5 N00313 N00313 CMOSP  
+ L=.18u  
+ W=.2u         
R_FLASH_FFD5_NAND3_R1         FLASH_FFD5_X 0  10Meg  
R_FLASH_FFD5_NAND3_R2         FLASH_-Q5 0  10Meg  
M_FLASH_FFD5_NAND2_M1         FLASH_FFD5_X FLASH_FFD5_N00589
+  FLASH_FFD5_NAND2_N00209 FLASH_FFD5_NAND2_N00209 CMOSN  
+ L=.18u  
+ W=.18u         
M_FLASH_FFD5_NAND2_M2         FLASH_FFD5_NAND2_N00209 N03264 0 0 CMOSN  
+ L=.18u  
+ W=.18u         
M_FLASH_FFD5_NAND2_M3         FLASH_FFD5_X FLASH_FFD5_N00589 N00313 N00313
+  CMOSP  
+ L=.18u  
+ W=.2u         
M_FLASH_FFD5_NAND2_M4         FLASH_FFD5_X N03264 N00313 N00313 CMOSP  
+ L=.18u  
+ W=.2u         
R_FLASH_FFD5_NAND2_R1         FLASH_FFD5_N00589 0  10Meg  
R_FLASH_FFD5_NAND2_R2         N03264 0  10Meg  
M_FLASH_FFD5_NAND4_M1         FLASH_-Q5 FLASH_Q5 FLASH_FFD5_NAND4_N00209
+  FLASH_FFD5_NAND4_N00209 CMOSN  
+ L=.18u  
+ W=.18u         
M_FLASH_FFD5_NAND4_M2         FLASH_FFD5_NAND4_N00209 FLASH_FFD5_Y 0 0 CMOSN  
+ L=.18u  
+ W=.18u         
M_FLASH_FFD5_NAND4_M3         FLASH_-Q5 FLASH_Q5 N00313 N00313 CMOSP  
+ L=.18u  
+ W=.2u         
M_FLASH_FFD5_NAND4_M4         FLASH_-Q5 FLASH_FFD5_Y N00313 N00313 CMOSP  
+ L=.18u  
+ W=.2u         
R_FLASH_FFD5_NAND4_R1         FLASH_Q5 0  10Meg  
R_FLASH_FFD5_NAND4_R2         FLASH_FFD5_Y 0  10Meg  
M_FLASH_C5_M4         FLASH_C5_N26867 FLASH_C5_N27085 N00313 N00313 CMOSP  
+ L=.2u  
+ W=.6u         
M_FLASH_C5_M5         FLASH_C5_N27149 N00862 0 0 CMOSN  
+ L=.2u  
+ W=.6u         
M_FLASH_C5_M6         FLASH_N00442 FLASH_C5_N26867 N00313 N00313 CMOSP  
+ L=.2u  
+ W=.8u         
M_FLASH_C5_M7         FLASH_N00442 N00862 0 0 CMOSN  
+ L=.2u  
+ W=.4u         
M_FLASH_C5_M1         FLASH_C5_N27085 VA FLASH_C5_N27149 0 CMOSN  
+ L=.2u  
+ W=.4u         
M_FLASH_C5_M2         FLASH_C5_N26867 C5 FLASH_C5_N27149 0 CMOSN  
+ L=.2u  
+ W=.4u         
M_FLASH_C5_M3         FLASH_C5_N27085 FLASH_C5_N27085 N00313 N00313 CMOSP  
+ L=.2u  
+ W=.6u         
M_FLASH_C6_M4         FLASH_C6_N26867 FLASH_C6_N27085 N00313 N00313 CMOSP  
+ L=.2u  
+ W=.6u         
M_FLASH_C6_M5         FLASH_C6_N27149 N00862 0 0 CMOSN  
+ L=.2u  
+ W=.6u         
M_FLASH_C6_M6         FLASH_N00436 FLASH_C6_N26867 N00313 N00313 CMOSP  
+ L=.2u  
+ W=.8u         
M_FLASH_C6_M7         FLASH_N00436 N00862 0 0 CMOSN  
+ L=.2u  
+ W=.4u         
M_FLASH_C6_M1         FLASH_C6_N27085 VA FLASH_C6_N27149 0 CMOSN  
+ L=.2u  
+ W=.4u         
M_FLASH_C6_M2         FLASH_C6_N26867 C6 FLASH_C6_N27149 0 CMOSN  
+ L=.2u  
+ W=.4u         
M_FLASH_C6_M3         FLASH_C6_N27085 FLASH_C6_N27085 N00313 N00313 CMOSP  
+ L=.2u  
+ W=.6u         
C_FLASH_FFD6_C3         0 FLASH_FFD6_Y  10p  
M_FLASH_FFD6_NAND_M1         FLASH_FFD6_N00589 FLASH_FFD6_N00861
+  FLASH_FFD6_NAND_N00209 FLASH_FFD6_NAND_N00209 CMOSN  
+ L=.18u  
+ W=.18u         
M_FLASH_FFD6_NAND_M2         FLASH_FFD6_NAND_N00209 FLASH_FFD6_X 0 0 CMOSN  
+ L=.18u  
+ W=.18u         
M_FLASH_FFD6_NAND_M3         FLASH_FFD6_N00589 FLASH_FFD6_N00861 N00313 N00313
+  CMOSP  
+ L=.18u  
+ W=.2u         
M_FLASH_FFD6_NAND_M4         FLASH_FFD6_N00589 FLASH_FFD6_X N00313 N00313 CMOSP
+   
+ L=.18u  
+ W=.2u         
R_FLASH_FFD6_NAND_R1         FLASH_FFD6_N00861 0  10Meg  
R_FLASH_FFD6_NAND_R2         FLASH_FFD6_X 0  10Meg  
M_FLASH_FFD6_NAND-3_M2         FLASH_FFD6_NAND-3_N05674 N03264
+  FLASH_FFD6_NAND-3_N05700 FLASH_FFD6_NAND-3_N05700 CMOSN  
+ L=.18u  
+ W=.18u         
M_FLASH_FFD6_NAND-3_M3         FLASH_FFD6_Y FLASH_FFD6_X N00313 N00313 CMOSP  
+ L=.18u  
+ W=.2u         
M_FLASH_FFD6_NAND-3_M5         FLASH_FFD6_Y FLASH_FFD6_N00861 N00313 N00313
+  CMOSP  
+ L=.18u  
+ W=.2u         
M_FLASH_FFD6_NAND-3_M4         FLASH_FFD6_Y N03264 N00313 N00313 CMOSP  
+ L=.18u  
+ W=.2u         
M_FLASH_FFD6_NAND-3_M6         FLASH_FFD6_NAND-3_N05700 FLASH_FFD6_N00861 0 0
+  CMOSN  
+ L=.18u  
+ W=.18u         
M_FLASH_FFD6_NAND-3_M1         FLASH_FFD6_Y FLASH_FFD6_X
+  FLASH_FFD6_NAND-3_N05674 FLASH_FFD6_NAND-3_N05674 CMOSN  
+ L=.18u  
+ W=.18u         
M_FLASH_FFD6_NAND1_M1         FLASH_FFD6_N00861 FLASH_FFD6_Y
+  FLASH_FFD6_NAND1_N00209 FLASH_FFD6_NAND1_N00209 CMOSN  
+ L=.18u  
+ W=.18u         
M_FLASH_FFD6_NAND1_M2         FLASH_FFD6_NAND1_N00209 FLASH_N00436 0 0 CMOSN  
+ L=.18u  
+ W=.18u         
M_FLASH_FFD6_NAND1_M3         FLASH_FFD6_N00861 FLASH_FFD6_Y N00313 N00313
+  CMOSP  
+ L=.18u  
+ W=.2u         
M_FLASH_FFD6_NAND1_M4         FLASH_FFD6_N00861 FLASH_N00436 N00313 N00313
+  CMOSP  
+ L=.18u  
+ W=.2u         
R_FLASH_FFD6_NAND1_R1         FLASH_FFD6_Y 0  10Meg  
R_FLASH_FFD6_NAND1_R2         FLASH_N00436 0  10Meg  
M_FLASH_FFD6_NAND3_M1         FLASH_Q6 FLASH_FFD6_X FLASH_FFD6_NAND3_N00209
+  FLASH_FFD6_NAND3_N00209 CMOSN  
+ L=.18u  
+ W=.18u         
M_FLASH_FFD6_NAND3_M2         FLASH_FFD6_NAND3_N00209 FLASH_-Q6 0 0 CMOSN  
+ L=.18u  
+ W=.18u         
M_FLASH_FFD6_NAND3_M3         FLASH_Q6 FLASH_FFD6_X N00313 N00313 CMOSP  
+ L=.18u  
+ W=.2u         
M_FLASH_FFD6_NAND3_M4         FLASH_Q6 FLASH_-Q6 N00313 N00313 CMOSP  
+ L=.18u  
+ W=.2u         
R_FLASH_FFD6_NAND3_R1         FLASH_FFD6_X 0  10Meg  
R_FLASH_FFD6_NAND3_R2         FLASH_-Q6 0  10Meg  
M_FLASH_FFD6_NAND2_M1         FLASH_FFD6_X FLASH_FFD6_N00589
+  FLASH_FFD6_NAND2_N00209 FLASH_FFD6_NAND2_N00209 CMOSN  
+ L=.18u  
+ W=.18u         
M_FLASH_FFD6_NAND2_M2         FLASH_FFD6_NAND2_N00209 N03264 0 0 CMOSN  
+ L=.18u  
+ W=.18u         
M_FLASH_FFD6_NAND2_M3         FLASH_FFD6_X FLASH_FFD6_N00589 N00313 N00313
+  CMOSP  
+ L=.18u  
+ W=.2u         
M_FLASH_FFD6_NAND2_M4         FLASH_FFD6_X N03264 N00313 N00313 CMOSP  
+ L=.18u  
+ W=.2u         
R_FLASH_FFD6_NAND2_R1         FLASH_FFD6_N00589 0  10Meg  
R_FLASH_FFD6_NAND2_R2         N03264 0  10Meg  
M_FLASH_FFD6_NAND4_M1         FLASH_-Q6 FLASH_Q6 FLASH_FFD6_NAND4_N00209
+  FLASH_FFD6_NAND4_N00209 CMOSN  
+ L=.18u  
+ W=.18u         
M_FLASH_FFD6_NAND4_M2         FLASH_FFD6_NAND4_N00209 FLASH_FFD6_Y 0 0 CMOSN  
+ L=.18u  
+ W=.18u         
M_FLASH_FFD6_NAND4_M3         FLASH_-Q6 FLASH_Q6 N00313 N00313 CMOSP  
+ L=.18u  
+ W=.2u         
M_FLASH_FFD6_NAND4_M4         FLASH_-Q6 FLASH_FFD6_Y N00313 N00313 CMOSP  
+ L=.18u  
+ W=.2u         
R_FLASH_FFD6_NAND4_R1         FLASH_Q6 0  10Meg  
R_FLASH_FFD6_NAND4_R2         FLASH_FFD6_Y 0  10Meg  
M_FLASH_C7_M4         FLASH_C7_N26867 FLASH_C7_N27085 N00313 N00313 CMOSP  
+ L=.2u  
+ W=.6u         
M_FLASH_C7_M5         FLASH_C7_N27149 N00862 0 0 CMOSN  
+ L=.2u  
+ W=.6u         
M_FLASH_C7_M6         FLASH_N00432 FLASH_C7_N26867 N00313 N00313 CMOSP  
+ L=.2u  
+ W=.8u         
M_FLASH_C7_M7         FLASH_N00432 N00862 0 0 CMOSN  
+ L=.2u  
+ W=.4u         
M_FLASH_C7_M1         FLASH_C7_N27085 VA FLASH_C7_N27149 0 CMOSN  
+ L=.2u  
+ W=.4u         
M_FLASH_C7_M2         FLASH_C7_N26867 C7 FLASH_C7_N27149 0 CMOSN  
+ L=.2u  
+ W=.4u         
M_FLASH_C7_M3         FLASH_C7_N27085 FLASH_C7_N27085 N00313 N00313 CMOSP  
+ L=.2u  
+ W=.6u         
C_FLASH_FFD7_C3         0 FLASH_FFD7_Y  10p  
M_FLASH_FFD7_NAND_M1         FLASH_FFD7_N00589 FLASH_FFD7_N00861
+  FLASH_FFD7_NAND_N00209 FLASH_FFD7_NAND_N00209 CMOSN  
+ L=.18u  
+ W=.18u         
M_FLASH_FFD7_NAND_M2         FLASH_FFD7_NAND_N00209 FLASH_FFD7_X 0 0 CMOSN  
+ L=.18u  
+ W=.18u         
M_FLASH_FFD7_NAND_M3         FLASH_FFD7_N00589 FLASH_FFD7_N00861 N00313 N00313
+  CMOSP  
+ L=.18u  
+ W=.2u         
M_FLASH_FFD7_NAND_M4         FLASH_FFD7_N00589 FLASH_FFD7_X N00313 N00313 CMOSP
+   
+ L=.18u  
+ W=.2u         
R_FLASH_FFD7_NAND_R1         FLASH_FFD7_N00861 0  10Meg  
R_FLASH_FFD7_NAND_R2         FLASH_FFD7_X 0  10Meg  
M_FLASH_FFD7_NAND-3_M2         FLASH_FFD7_NAND-3_N05674 N03264
+  FLASH_FFD7_NAND-3_N05700 FLASH_FFD7_NAND-3_N05700 CMOSN  
+ L=.18u  
+ W=.18u         
M_FLASH_FFD7_NAND-3_M3         FLASH_FFD7_Y FLASH_FFD7_X N00313 N00313 CMOSP  
+ L=.18u  
+ W=.2u         
M_FLASH_FFD7_NAND-3_M5         FLASH_FFD7_Y FLASH_FFD7_N00861 N00313 N00313
+  CMOSP  
+ L=.18u  
+ W=.2u         
M_FLASH_FFD7_NAND-3_M4         FLASH_FFD7_Y N03264 N00313 N00313 CMOSP  
+ L=.18u  
+ W=.2u         
M_FLASH_FFD7_NAND-3_M6         FLASH_FFD7_NAND-3_N05700 FLASH_FFD7_N00861 0 0
+  CMOSN  
+ L=.18u  
+ W=.18u         
M_FLASH_FFD7_NAND-3_M1         FLASH_FFD7_Y FLASH_FFD7_X
+  FLASH_FFD7_NAND-3_N05674 FLASH_FFD7_NAND-3_N05674 CMOSN  
+ L=.18u  
+ W=.18u         
M_FLASH_FFD7_NAND1_M1         FLASH_FFD7_N00861 FLASH_FFD7_Y
+  FLASH_FFD7_NAND1_N00209 FLASH_FFD7_NAND1_N00209 CMOSN  
+ L=.18u  
+ W=.18u         
M_FLASH_FFD7_NAND1_M2         FLASH_FFD7_NAND1_N00209 FLASH_N00432 0 0 CMOSN  
+ L=.18u  
+ W=.18u         
M_FLASH_FFD7_NAND1_M3         FLASH_FFD7_N00861 FLASH_FFD7_Y N00313 N00313
+  CMOSP  
+ L=.18u  
+ W=.2u         
M_FLASH_FFD7_NAND1_M4         FLASH_FFD7_N00861 FLASH_N00432 N00313 N00313
+  CMOSP  
+ L=.18u  
+ W=.2u         
R_FLASH_FFD7_NAND1_R1         FLASH_FFD7_Y 0  10Meg  
R_FLASH_FFD7_NAND1_R2         FLASH_N00432 0  10Meg  
M_FLASH_FFD7_NAND3_M1         FLASH_Q7 FLASH_FFD7_X FLASH_FFD7_NAND3_N00209
+  FLASH_FFD7_NAND3_N00209 CMOSN  
+ L=.18u  
+ W=.18u         
M_FLASH_FFD7_NAND3_M2         FLASH_FFD7_NAND3_N00209 FLASH_N17008 0 0 CMOSN  
+ L=.18u  
+ W=.18u         
M_FLASH_FFD7_NAND3_M3         FLASH_Q7 FLASH_FFD7_X N00313 N00313 CMOSP  
+ L=.18u  
+ W=.2u         
M_FLASH_FFD7_NAND3_M4         FLASH_Q7 FLASH_N17008 N00313 N00313 CMOSP  
+ L=.18u  
+ W=.2u         
R_FLASH_FFD7_NAND3_R1         FLASH_FFD7_X 0  10Meg  
R_FLASH_FFD7_NAND3_R2         FLASH_N17008 0  10Meg  
M_FLASH_FFD7_NAND2_M1         FLASH_FFD7_X FLASH_FFD7_N00589
+  FLASH_FFD7_NAND2_N00209 FLASH_FFD7_NAND2_N00209 CMOSN  
+ L=.18u  
+ W=.18u         
M_FLASH_FFD7_NAND2_M2         FLASH_FFD7_NAND2_N00209 N03264 0 0 CMOSN  
+ L=.18u  
+ W=.18u         
M_FLASH_FFD7_NAND2_M3         FLASH_FFD7_X FLASH_FFD7_N00589 N00313 N00313
+  CMOSP  
+ L=.18u  
+ W=.2u         
M_FLASH_FFD7_NAND2_M4         FLASH_FFD7_X N03264 N00313 N00313 CMOSP  
+ L=.18u  
+ W=.2u         
R_FLASH_FFD7_NAND2_R1         FLASH_FFD7_N00589 0  10Meg  
R_FLASH_FFD7_NAND2_R2         N03264 0  10Meg  
M_FLASH_FFD7_NAND4_M1         FLASH_N17008 FLASH_Q7 FLASH_FFD7_NAND4_N00209
+  FLASH_FFD7_NAND4_N00209 CMOSN  
+ L=.18u  
+ W=.18u         
M_FLASH_FFD7_NAND4_M2         FLASH_FFD7_NAND4_N00209 FLASH_FFD7_Y 0 0 CMOSN  
+ L=.18u  
+ W=.18u         
M_FLASH_FFD7_NAND4_M3         FLASH_N17008 FLASH_Q7 N00313 N00313 CMOSP  
+ L=.18u  
+ W=.2u         
M_FLASH_FFD7_NAND4_M4         FLASH_N17008 FLASH_FFD7_Y N00313 N00313 CMOSP  
+ L=.18u  
+ W=.2u         
R_FLASH_FFD7_NAND4_R1         FLASH_Q7 0  10Meg  
R_FLASH_FFD7_NAND4_R2         FLASH_FFD7_Y 0  10Meg  
C_FLASH_FFD1_C3         0 FLASH_FFD1_Y  10p  
M_FLASH_FFD1_NAND_M1         FLASH_FFD1_N00589 FLASH_FFD1_N00861
+  FLASH_FFD1_NAND_N00209 FLASH_FFD1_NAND_N00209 CMOSN  
+ L=.18u  
+ W=.18u         
M_FLASH_FFD1_NAND_M2         FLASH_FFD1_NAND_N00209 FLASH_FFD1_X 0 0 CMOSN  
+ L=.18u  
+ W=.18u         
M_FLASH_FFD1_NAND_M3         FLASH_FFD1_N00589 FLASH_FFD1_N00861 N00313 N00313
+  CMOSP  
+ L=.18u  
+ W=.2u         
M_FLASH_FFD1_NAND_M4         FLASH_FFD1_N00589 FLASH_FFD1_X N00313 N00313 CMOSP
+   
+ L=.18u  
+ W=.2u         
R_FLASH_FFD1_NAND_R1         FLASH_FFD1_N00861 0  10Meg  
R_FLASH_FFD1_NAND_R2         FLASH_FFD1_X 0  10Meg  
M_FLASH_FFD1_NAND-3_M2         FLASH_FFD1_NAND-3_N05674 N03264
+  FLASH_FFD1_NAND-3_N05700 FLASH_FFD1_NAND-3_N05700 CMOSN  
+ L=.18u  
+ W=.18u         
M_FLASH_FFD1_NAND-3_M3         FLASH_FFD1_Y FLASH_FFD1_X N00313 N00313 CMOSP  
+ L=.18u  
+ W=.2u         
M_FLASH_FFD1_NAND-3_M5         FLASH_FFD1_Y FLASH_FFD1_N00861 N00313 N00313
+  CMOSP  
+ L=.18u  
+ W=.2u         
M_FLASH_FFD1_NAND-3_M4         FLASH_FFD1_Y N03264 N00313 N00313 CMOSP  
+ L=.18u  
+ W=.2u         
M_FLASH_FFD1_NAND-3_M6         FLASH_FFD1_NAND-3_N05700 FLASH_FFD1_N00861 0 0
+  CMOSN  
+ L=.18u  
+ W=.18u         
M_FLASH_FFD1_NAND-3_M1         FLASH_FFD1_Y FLASH_FFD1_X
+  FLASH_FFD1_NAND-3_N05674 FLASH_FFD1_NAND-3_N05674 CMOSN  
+ L=.18u  
+ W=.18u         
M_FLASH_FFD1_NAND1_M1         FLASH_FFD1_N00861 FLASH_FFD1_Y
+  FLASH_FFD1_NAND1_N00209 FLASH_FFD1_NAND1_N00209 CMOSN  
+ L=.18u  
+ W=.18u         
M_FLASH_FFD1_NAND1_M2         FLASH_FFD1_NAND1_N00209 FLASH_N00486 0 0 CMOSN  
+ L=.18u  
+ W=.18u         
M_FLASH_FFD1_NAND1_M3         FLASH_FFD1_N00861 FLASH_FFD1_Y N00313 N00313
+  CMOSP  
+ L=.18u  
+ W=.2u         
M_FLASH_FFD1_NAND1_M4         FLASH_FFD1_N00861 FLASH_N00486 N00313 N00313
+  CMOSP  
+ L=.18u  
+ W=.2u         
R_FLASH_FFD1_NAND1_R1         FLASH_FFD1_Y 0  10Meg  
R_FLASH_FFD1_NAND1_R2         FLASH_N00486 0  10Meg  
M_FLASH_FFD1_NAND3_M1         FLASH_Q1 FLASH_FFD1_X FLASH_FFD1_NAND3_N00209
+  FLASH_FFD1_NAND3_N00209 CMOSN  
+ L=.18u  
+ W=.18u         
M_FLASH_FFD1_NAND3_M2         FLASH_FFD1_NAND3_N00209 FLASH_-Q1 0 0 CMOSN  
+ L=.18u  
+ W=.18u         
M_FLASH_FFD1_NAND3_M3         FLASH_Q1 FLASH_FFD1_X N00313 N00313 CMOSP  
+ L=.18u  
+ W=.2u         
M_FLASH_FFD1_NAND3_M4         FLASH_Q1 FLASH_-Q1 N00313 N00313 CMOSP  
+ L=.18u  
+ W=.2u         
R_FLASH_FFD1_NAND3_R1         FLASH_FFD1_X 0  10Meg  
R_FLASH_FFD1_NAND3_R2         FLASH_-Q1 0  10Meg  
M_FLASH_FFD1_NAND2_M1         FLASH_FFD1_X FLASH_FFD1_N00589
+  FLASH_FFD1_NAND2_N00209 FLASH_FFD1_NAND2_N00209 CMOSN  
+ L=.18u  
+ W=.18u         
M_FLASH_FFD1_NAND2_M2         FLASH_FFD1_NAND2_N00209 N03264 0 0 CMOSN  
+ L=.18u  
+ W=.18u         
M_FLASH_FFD1_NAND2_M3         FLASH_FFD1_X FLASH_FFD1_N00589 N00313 N00313
+  CMOSP  
+ L=.18u  
+ W=.2u         
M_FLASH_FFD1_NAND2_M4         FLASH_FFD1_X N03264 N00313 N00313 CMOSP  
+ L=.18u  
+ W=.2u         
R_FLASH_FFD1_NAND2_R1         FLASH_FFD1_N00589 0  10Meg  
R_FLASH_FFD1_NAND2_R2         N03264 0  10Meg  
M_FLASH_FFD1_NAND4_M1         FLASH_-Q1 FLASH_Q1 FLASH_FFD1_NAND4_N00209
+  FLASH_FFD1_NAND4_N00209 CMOSN  
+ L=.18u  
+ W=.18u         
M_FLASH_FFD1_NAND4_M2         FLASH_FFD1_NAND4_N00209 FLASH_FFD1_Y 0 0 CMOSN  
+ L=.18u  
+ W=.18u         
M_FLASH_FFD1_NAND4_M3         FLASH_-Q1 FLASH_Q1 N00313 N00313 CMOSP  
+ L=.18u  
+ W=.2u         
M_FLASH_FFD1_NAND4_M4         FLASH_-Q1 FLASH_FFD1_Y N00313 N00313 CMOSP  
+ L=.18u  
+ W=.2u         
R_FLASH_FFD1_NAND4_R1         FLASH_Q1 0  10Meg  
R_FLASH_FFD1_NAND4_R2         FLASH_FFD1_Y 0  10Meg  
R_R3         LSB N00313  10Meg  
V_VDD         N00313 0 3.3
V_Vbias         N00862 0 .3
R_V-REF_R1         C7 VO  5k  
R_V-REF_R2         C6 C7  10k  
R_V-REF_R3         C5 C6  10k  
R_V-REF_R4         C4 C5  10k  
R_V-REF_R5         C3 C4  10k  
R_V-REF_R6         C2 C3  10k  
V_V-REF_Vq         V-REF_N01845 0 .2
R_V-REF_R7         C1 C2  10k  
R_V-REF_R8         V-REF_N01845 C1  5k  
V_Clock         N03264 0  
+PULSE 0 3.3 4.9u 0.1u 0.1u 4.9u 10u
V_Va         VA 0  
+SIN 0 1.2 3k 0 0 0
R_R1         MSB N00313  10Meg  

**** RESUMING transient.cir ****
.END

WARNING -- Mosfet M_FLASH_FFD2_NAND_M1, model CMOSN: Pd = 0 is less than W
WARNING -- Mosfet M_FLASH_FFD2_NAND_M1, model CMOSN: Ps = 0 is less than W
WARNING -- Mosfet M_FLASH_C1_M5, model CMOSN: Pd = 0 is less than W
WARNING -- Mosfet M_FLASH_C1_M5, model CMOSN: Ps = 0 is less than W
WARNING -- Mosfet M_FLASH_C1_M7, model CMOSN: Pd = 0 is less than W
WARNING -- Mosfet M_FLASH_C1_M7, model CMOSN: Ps = 0 is less than W
WARNING -- Mosfet M_FLASH_FFD2_NAND_M3, model CMOSP: Pd = 0 is less than W
WARNING -- Mosfet M_FLASH_FFD2_NAND_M3, model CMOSP: Ps = 0 is less than W
WARNING -- Mosfet M_FLASH_C1_M4, model CMOSP: Pd = 0 is less than W
WARNING -- Mosfet M_FLASH_C1_M4, model CMOSP: Ps = 0 is less than W
WARNING -- Mosfet M_FLASH_C1_M6, model CMOSP: Pd = 0 is less than W
WARNING -- Mosfet M_FLASH_C1_M6, model CMOSP: Ps = 0 is less than W
**** 11/18/09 21:34:46 ******* PSpice 10.5.0 (Jan 2005) ******* ID# 0 ********

 ** Profile: "FLASH-transient"  [ D:\Documents\TESIS\TRUNK\Design\I-FLASH-01\OrCAD\i-flash-01-pspicefiles\flash\transient.sim ] 


 ****     MOSFET MODEL PARAMETERS


******************************************************************************




               CMOSN           CMOSP           
               NMOS            PMOS            
  T_Measured   27              27            
   T_Current   27              27            
       LEVEL    7               7            
           L  100.000000E-06  100.000000E-06 
           W  100.000000E-06  100.000000E-06 
         VTO     .294194        -.413091     
          KP  460.419200E-06  460.419200E-06 
       GAMMA    0               0            
      LAMBDA    0               0            
         RSH    6.2             5.9          
          IS    1.000000E-15    1.000000E-15 
          JS  100.000000E-06  100.000000E-06 
          PB     .99             .821464     
        PBSW     .8              .8008       
          CJ  815.244000E-06    1.165977E-03 
        CJSW  165.796200E-12  122.005600E-12 
          MJ     .610228         .425655     
        MJSW     .163262         .1001       
        CGSO  500.000000E-12  500.000000E-12 
        CGDO  500.000000E-12  500.000000E-12 
        CGBO    1.000000E-12    1.000000E-12 
         TOX    4.500000E-09    4.500000E-09 
          XJ  100.000000E-09  100.000000E-09 
       UCRIT   10.000000E+03   10.000000E+03 
       DELTA     .01             .01         
      DIOMOD    2               2            
          K1     .541355         .59909      
          K2    -.032332     -669.794000E-09 
        LETA    0               0            
        WETA    0               0            
          U0  269.8792        118.3014       
       XPART     .5              .5          
        VTH0     .294194        -.413091     
          K3    1.000406E-03     .080859     
          W0  100.000000E-09    1.000000E-06 
         NLX  206.491900E-09   25.530790E-09 
        DVT0     .565214         .819884     
        DVT1     .260305         .744212     
          UA   -1.619209E-09    1.535614E-09 
          UB    2.953688E-18    1.000000E-21 
          UC   57.637850E-12 -100.000000E-12 
        VSAT  106.504000E+03  173.454300E+03 
        RDSW  150             677.8533       
        VOFF    -.09299         -.142681     
     NFACTOR    2.044734         .94145      
        PCLM    1.968647         .334199     
      PDIBL1    1                .132793     
      PDIBL2    -.072042        9.825629E-03 
       DROUT    1                .81589      
      PSCBE1    2.350722E+09    3.057881E+09 
      PSCBE2  508.313600E-12    5.892816E-09 
          A0    1.425322         .926787     
          A1     .023731         .01033      
          A2     .550469         .752154     
       NPEAK  235.490000E+15  415.890000E+15 
         LDD    0               0            
        LITL   36.742350E-09   36.742350E-09 
         UC1  -56.000000E-12  -56.000000E-12 
        PVAG                     .122566     
        KETA    -.016685         .022875     
        ETA0    6.051176E-03    1.263659E-03 
        ETAB -858.512600E-06   -2.195822E-03 
         K3B    5.01511        19.71403      
        DVT2    -.067374        -.3          
        DSUB    3.642935E-03    4.891602E-03 
         AGS     .37123          .166834     
       DVT1W    0               0            
       DVT2W    0               0            
        PRWG     .34061         -.054897     
        PRWB    -.183689        -.5          
     PDIBLCB    -.1            -1.000000E-03 
         DWG    5.313945E-09  -25.031010E-09 
         DWB   13.440770E-09  -12.379610E-09 
          B0  -23.699750E-09    1.874426E-06 
          B1                    5.000000E-06 
        LINT   20.673220E-09   27.788770E-09 
        WINT   12.447730E-09                 
         DLC   20.673220E-09   27.788770E-09 
         DWC   12.447730E-09    0            
          CF    0               0            
        NOIA  100.000000E+18    9.900001E+18 
        NOIB   50.000000E+03    2.400000E+03 
        NOIC   -1.400000E-12    1.400000E-12 
       LKETA  399.601500E-06    -.010867     
       WKETA    3.401938E-03     .03239      
       PVSAT  790.3922         50            
       PKETA    -.014873       -6.167985E-03 
       PVTH0   -4.814415E-03    1.001339E-03 
         PUA  -31.414400E-12  362.786900E-12 
         PU0   -4.028575        7.380991     
       PRDSW   -2.504635       -5            
       PETA0  -67.588480E-06  100.000000E-06 
         PK2    3.159047E-03   30.964830E-06 
         VTM     .025864         .025864     
       PBSWG     .8              .8008       
       MJSWG     .163262         .1001       
       CJSWG  330.000000E-12  422.000000E-12 


WARNING -- Mosfet M_FLASH_FFD2_NAND_M1, model CMOSN: Pd = 0 is less than W
WARNING -- Mosfet M_FLASH_FFD2_NAND_M1, model CMOSN: Ps = 0 is less than W
WARNING -- Mosfet M_FLASH_C1_M5, model CMOSN: Pd = 0 is less than W
WARNING -- Mosfet M_FLASH_C1_M5, model CMOSN: Ps = 0 is less than W
WARNING -- Mosfet M_FLASH_C1_M7, model CMOSN: Pd = 0 is less than W
WARNING -- Mosfet M_FLASH_C1_M7, model CMOSN: Ps = 0 is less than W
WARNING -- Mosfet M_FLASH_FFD2_NAND_M3, model CMOSP: Pd = 0 is less than W
WARNING -- Mosfet M_FLASH_FFD2_NAND_M3, model CMOSP: Ps = 0 is less than W
WARNING -- Mosfet M_FLASH_C1_M4, model CMOSP: Pd = 0 is less than W
WARNING -- Mosfet M_FLASH_C1_M4, model CMOSP: Ps = 0 is less than W
WARNING -- Mosfet M_FLASH_C1_M6, model CMOSP: Pd = 0 is less than W
WARNING -- Mosfet M_FLASH_C1_M6, model CMOSP: Ps = 0 is less than W
ERROR -- Convergence problem in transient bias point calculation


  Last node voltages tried were:

 NODE   VOLTAGE     NODE   VOLTAGE     NODE   VOLTAGE     NODE   VOLTAGE


(   C1) 2.714E-06  (   C2) 4.143E-06  (   C3) 5.571E-06  (   C4) 7.000E-06      

(   C5) 8.429E-06  (   C6) 9.857E-06  (   C7) 11.29E-06  (   VA)    0.0000      

(   VO) 12.00E-06  (  2SB) 32.20E-06  (  LSB) 33.00E-06  (  MSB) 6.592E-06      

(N00313) 33.00E-06 (N00862) 3.000E-06 (N03264)    0.0000 (FLASH_Q1) 77.17E-09   

(FLASH_Q2) 51.70E-09                  (FLASH_Q3) 38.87E-09                      

(FLASH_Q4) 6.592E-06                  (FLASH_Q5) 31.14E-09                      

(FLASH_Q6) 25.98E-09                  (FLASH_Q7) 25.98E-09                      

(FLASH_-Q1) 38.87E-09                 (FLASH_-Q2) 38.87E-09                     

(FLASH_-Q3) 51.70E-09                 (FLASH_-Q4) 38.86E-09                     

(FLASH_-Q5) 77.17E-09                 (FLASH_-Q6) 77.17E-09                     

(FLASH_FFD1_X) 77.17E-09              (FLASH_FFD1_Y) 116.1E-09                  

(FLASH_FFD2_X) 77.17E-09              (FLASH_FFD2_Y) 116.1E-09                  

(FLASH_FFD3_X) 77.17E-09              (FLASH_FFD3_Y) 116.1E-09                  

(FLASH_FFD4_X) 77.17E-09              (FLASH_FFD4_Y) 116.1E-09                  

(FLASH_FFD5_X) 77.17E-09              (FLASH_FFD5_Y) 116.1E-09                  

(FLASH_FFD6_X) 77.17E-09              (FLASH_FFD6_Y) 116.1E-09                  

(FLASH_FFD7_X) 77.17E-09              (FLASH_FFD7_Y) 116.1E-09                  

(FLASH_N00432) 87.36E-09              (FLASH_N00436) 87.36E-09                  

(FLASH_N00442) 87.36E-09              (FLASH_N00450) 87.36E-09                  

(FLASH_N00460) 87.36E-09              (FLASH_N00472) 87.36E-09                  

(FLASH_N00486) 87.36E-09              (FLASH_N17008) 77.17E-09                  

(V-REF_N01845) 2.000E-06              (FLASH_U2_2SB-1) 383.2E-09                

(FLASH_U2_2SB-2) 152.1E-09            (FLASH_U2_LSB-1) 535.5E-09                

(FLASH_U2_LSB-2) 535.5E-09            (FLASH_U2_LSB-3) 535.4E-09                

(FLASH_U2_LSB-4) -188.0000            (FLASH_C1_N26867) 15.86E-06               

(FLASH_C1_N27085) 15.86E-06           (FLASH_C1_N27149) 11.39E-06               

(FLASH_C2_N26867) 15.86E-06           (FLASH_C2_N27085) 15.86E-06               

(FLASH_C2_N27149) 11.39E-06           (FLASH_C3_N26867) 15.86E-06               

(FLASH_C3_N27085) 15.86E-06           (FLASH_C3_N27149) 11.39E-06               

(FLASH_C4_N26867) 15.86E-06           (FLASH_C4_N27085) 15.86E-06               

(FLASH_C4_N27149) 11.39E-06           (FLASH_C5_N26867) 15.86E-06               

(FLASH_C5_N27085) 15.86E-06           (FLASH_C5_N27149) 11.39E-06               

(FLASH_C6_N26867) 15.86E-06           (FLASH_C6_N27085) 15.86E-06               

(FLASH_C6_N27149) 11.39E-06           (FLASH_C7_N26867) 15.86E-06               

(FLASH_C7_N27085) 15.86E-06           (FLASH_C7_N27149) 11.39E-06               

(FLASH_U2_N58394) 6.592E-06           (FLASH_FFD1_N00589) 152.1E-09             

(FLASH_FFD1_N00861) 152.1E-09         (FLASH_FFD2_N00589) 152.1E-09             

(FLASH_FFD2_N00861) 152.1E-09         (FLASH_FFD3_N00589) 152.1E-09             

(FLASH_FFD3_N00861) 152.1E-09         (FLASH_FFD4_N00589) 152.1E-09             

(FLASH_FFD4_N00861) 152.1E-09         (FLASH_FFD5_N00589) 152.1E-09             

(FLASH_FFD5_N00861) 152.1E-09         (FLASH_FFD6_N00589) 152.1E-09             

(FLASH_FFD6_N00861) 152.1E-09         (FLASH_FFD7_N00589) 152.1E-09             

(FLASH_FFD7_N00861) 152.1E-09         (FLASH_FFD1_NAND_N00209) 76.06E-09        

(FLASH_FFD2_NAND_N00209) 76.06E-09    (FLASH_FFD3_NAND_N00209) 76.06E-09        

(FLASH_FFD4_NAND_N00209) 76.06E-09    (FLASH_FFD5_NAND_N00209) 76.06E-09        

(FLASH_FFD6_NAND_N00209) 76.06E-09    (FLASH_FFD7_NAND_N00209) 76.06E-09        

(FLASH_U2_2-NAND_N23681) 76.04E-09    (FLASH_U2_4-NAND_N28403) 32.94E-06        

(FLASH_U2_4-NAND_N28818) 32.91E-06    (FLASH_U2_4-NAND_N29978) 32.89E-06        

(FLASH_U2_5-NAND_N33539) 306.3E-09    (FLASH_U2_5-NAND_N33841) 229.6E-09        

(FLASH_U2_5-NAND_N33879) 153.0E-09    (FLASH_U2_5-NAND_N36965) 76.47E-09        

(FLASH_U2_7-NAND_N38454) 458.4E-09    (FLASH_U2_7-NAND_N38740) 381.6E-09        

(FLASH_U2_7-NAND_N38778) 305.0E-09    (FLASH_U2_7-NAND_N39060) 228.6E-09        

(FLASH_U2_7-NAND_N43046) 152.3E-09    (FLASH_U2_7-NAND_N43125) 76.15E-09        

(FLASH_FFD1_NAND1_N00209) 76.06E-09   (FLASH_FFD1_NAND2_N00209) 38.59E-09       

(FLASH_FFD1_NAND3_N00209) 38.59E-09   (FLASH_FFD1_NAND4_N00209) 19.43E-09       

(FLASH_FFD2_NAND1_N00209) 76.06E-09   (FLASH_FFD2_NAND2_N00209) 38.59E-09       

(FLASH_FFD2_NAND3_N00209) 25.85E-09   (FLASH_FFD2_NAND4_N00209) 19.43E-09       

(FLASH_FFD3_NAND1_N00209) 76.06E-09   (FLASH_FFD3_NAND2_N00209) 38.59E-09       

(FLASH_FFD3_NAND3_N00209) 19.43E-09   (FLASH_FFD3_NAND4_N00209) 25.85E-09       

(FLASH_FFD4_NAND1_N00209) 76.06E-09   (FLASH_FFD4_NAND2_N00209) 38.59E-09       

(FLASH_FFD4_NAND3_N00209) 3.296E-06   (FLASH_FFD4_NAND4_N00209) 19.43E-09       

(FLASH_FFD5_NAND1_N00209) 76.06E-09   (FLASH_FFD5_NAND2_N00209) 38.59E-09       

(FLASH_FFD5_NAND3_N00209) 15.57E-09   (FLASH_FFD5_NAND4_N00209) 38.59E-09       

(FLASH_FFD6_NAND1_N00209) 76.06E-09   (FLASH_FFD6_NAND2_N00209) 38.59E-09       

(FLASH_FFD6_NAND3_N00209) 12.99E-09   (FLASH_FFD6_NAND4_N00209) 38.59E-09       

(FLASH_FFD7_NAND1_N00209) 76.06E-09   (FLASH_FFD7_NAND2_N00209) 38.59E-09       

(FLASH_FFD7_NAND3_N00209) 12.99E-09   (FLASH_FFD7_NAND4_N00209) 38.59E-09       

(FLASH_U2_2-NAND1_N23681) 16.09E-06   (FLASH_U2_7-NAND1_N38454) 458.4E-09       

(FLASH_U2_7-NAND1_N38740) 381.6E-09   (FLASH_U2_7-NAND1_N38778) 305.0E-09       

(FLASH_U2_7-NAND1_N39060) 228.6E-09   (FLASH_U2_7-NAND1_N43046) 152.3E-09       

(FLASH_U2_7-NAND1_N43125) 76.15E-09   (FLASH_U2_7-NAND2_N38454) 458.4E-09       

(FLASH_U2_7-NAND2_N38740) 381.6E-09   (FLASH_U2_7-NAND2_N38778) 305.0E-09       

(FLASH_U2_7-NAND2_N39060) 228.6E-09   (FLASH_U2_7-NAND2_N43046) 152.3E-09       

(FLASH_U2_7-NAND2_N43125) 76.15E-09   (FLASH_U2_7-NAND3_N38454)    7.8123       

(FLASH_U2_7-NAND3_N38740) -539.2300   (FLASH_U2_7-NAND3_N38778)    -.5554       

(FLASH_U2_7-NAND3_N39060)    -.1599   (FLASH_U2_7-NAND3_N43046)    -.3894       

(FLASH_U2_7-NAND3_N43125)    -.4336   (FLASH_FFD1_NAND-3_N05674) 77.40E-09      

(FLASH_FFD1_NAND-3_N05700) 38.70E-09  (FLASH_FFD2_NAND-3_N05674) 77.40E-09      

(FLASH_FFD2_NAND-3_N05700) 38.70E-09  (FLASH_FFD3_NAND-3_N05674) 77.40E-09      

(FLASH_FFD3_NAND-3_N05700) 38.70E-09  (FLASH_FFD4_NAND-3_N05674) 77.40E-09      

(FLASH_FFD4_NAND-3_N05700) 38.70E-09  (FLASH_FFD5_NAND-3_N05674) 77.40E-09      

(FLASH_FFD5_NAND-3_N05700) 38.70E-09  (FLASH_FFD6_NAND-3_N05674) 77.40E-09      

(FLASH_FFD6_NAND-3_N05700) 38.70E-09  (FLASH_FFD7_NAND-3_N05674) 77.40E-09      

(FLASH_FFD7_NAND-3_N05700) 38.70E-09  


  These voltages failed to converge:

    V(FLASH_U2_LSB-4)         =   351.64mV  \   -188.00V
    V(FLASH_U2_7-NAND3_N38454) =    -2.287V  \     7.812V
    V(FLASH_U2_7-NAND3_N38740) =    -2.162V  \   -539.23V
    V(FLASH_U2_7-NAND3_N38778) =  -626.70mV  \  -555.38mV
    V(FLASH_U2_7-NAND3_N43125) =  -343.40mV  \  -433.58mV
    V(FLASH_U2_7-NAND3_N43046) =  -462.94mV  \  -389.44mV
    V(FLASH_U2_7-NAND3_N39060) =    -2.801V  \  -159.87mV

  These supply currents failed to converge:

    I(V_VDD)                  =    79.65uA  \  -409.45nA

  These devices failed to converge:
    M_FLASH_U2_4-NAND_M7 M_FLASH_U2_7-NAND3_M2 M_FLASH_U2_7-NAND3_M6 
    M_FLASH_U2_7-NAND3_M8 M_FLASH_U2_7-NAND3_M14 M_FLASH_U2_7-NAND3_M11 
    M_FLASH_U2_7-NAND3_M3 M_FLASH_U2_7-NAND3_M4 M_FLASH_U2_7-NAND3_M13 
    M_FLASH_U2_7-NAND3_M9 M_FLASH_U2_7-NAND3_M12 M_FLASH_U2_7-NAND3_M7 
    M_FLASH_U2_7-NAND3_M5 M_FLASH_U2_7-NAND3_M1 M_FLASH_U2_7-NAND3_M10 

**** Interrupt ****
