
**** 10/08/09 21:15:54 ******* PSpice 10.5.0 (Jan 2005) ******* ID# 0 ********

 ** Profile: "S-NAND-2-bias"  [ D:\Documents\TESIS\TRUNK\Design\I-FFD\I-FFD-PSpiceFiles\S-NAND-2\bias.sim ] 


 ****     CIRCUIT DESCRIPTION


******************************************************************************




** Creating circuit file "bias.cir" 
** WARNING: THIS AUTOMATICALLY GENERATED FILE MAY BE OVERWRITTEN BY SUBSEQUENT SIMULATIONS

*Libraries: 
* Profile Libraries :
* Local Libraries :
* From [PSPICE NETLIST] section of C:\OrCAD\OrCAD_10.5\tools\PSpice\PSpice.ini file:
.lib "nom.lib" 

*Analysis directives: 
.PROBE V(alias(*)) I(alias(*)) W(alias(*)) D(alias(*)) NOISE(alias(*)) 
.INC "..\S-NAND-2.net" 



**** INCLUDING S-NAND-2.net ****
* source I-FFD
R_R2         GND OUT  1M  
M_M1         OUT GND N00209 N00209 MbreakN           
R_R1         GND N00209  1M  
M_M2         N00209 GND GND GND MbreakN           
M_M3         OUT GND VDD VDD MbreakP           
M_M4         OUT GND VDD VDD MbreakP           
V_V1         VDD GND 5

**** RESUMING bias.cir ****
.END

ERROR -- Node GND is floating
ERROR -- Node OUT is floating
ERROR -- Node N00209 is floating
ERROR -- Node VDD is floating