
**** 05/26/10 11:23:55 ******* PSpice 16.0.0 (July 2006) ****** ID# 0 ********

 **** 05/12/10 18:10:37 ******* PSpice 16.0.0 (July 2006) ****** ID# 0 ********


 ****     CIRCUIT DESCRIPTION


******************************************************************************




 ** Profile: "DOBLE-NEG-PRUEBA"  [ D:\Documents\TESIS\fiocs\Design\I-COMPARADOR-01\OrCAD\i-comparador-01-pspicefiles\doble-neg\prueb

 ****     CIRCUIT DESCRIPTION
******************************************************************************

* Local Libraries :
.LIB "D:\Documents\TESIS\fiocs\Design\I-COMPARADOR-01\OrCAD\i-comparador-01-pspicefiles\i-comparador-01.lib" 
.lib "nom.lib" 

*Analysis directives: 
.STEP V_VIN LIST -10m -5m 5m 10m
.TRAN  0 100n 0 1p 
.PROBE V(*) I(*) 

**** INCLUDING DOBLE-NEG.net ****
* source I-COMPARADOR-01

V_VIN         VINNEG N652820 0
M_M1         NDNEG VINNEG NDBIAS 0 CMOSN  
+ L=10u  
+ W=265u         
M_M2         NDPOS VINPOS NDBIAS 0 CMOSN  
+ L=10u  
+ W=265u         
V_VDD         N64870 0 3.3
M_M3         NDNEG NDNEG N64870 N64870 CMOSP  
+ L=10u  
+ W=200u         
V_VBIAS         VBIAS 0 1
M_M12         NDOUT NDPOS N64870 N64870 CMOSP  
+ L=10u  
+ W=1120u         
V_VQ2         N1312720 0 1.320
M_M4         NDPOS NDNEG N64870 N64870 CMOSP  
+ L=10u  
+ W=200u         
M_M13         NDOUT VBIAS 0 0 CMOSN  
+ L=15u  
+ W=220u         
M_M5         NDBIAS VBIAS 0 0 CMOSN  
+ L=12.5u  
+ W=65u         
V_VQ1         N652820 0 1.320
V_VREF         VINPOS N1312720 0
        

I_INYECCION             0 NDOUT DC 0Adc AC 0Aac
+PULSE 0 4m 2n 250p 250p 5n 0

.END

Mosfet M_M1, model CMOSN: Using BSIM VERSION 3.1 or lower
WARNING -- Mosfet M_M1, model CMOSN: Pd = 0 is less than W
WARNING -- Mosfet M_M1, model CMOSN: Ps = 0 is less than W
Mosfet M_M13, model CMOSN: Using BSIM VERSION 3.1 or lower
WARNING -- Mosfet M_M13, model CMOSN: Pd = 0 is less than W
WARNING -- Mosfet M_M13, model CMOSN: Ps = 0 is less than W
Mosfet M_M5, model CMOSN: Using BSIM VERSION 3.1 or lower
WARNING -- Mosfet M_M5, model CMOSN: Pd = 0 is less than W
WARNING -- Mosfet M_M5, model CMOSN: Ps = 0 is less than W
Mosfet M_M3, model CMOSP: Using BSIM VERSION 3.1 or lower
WARNING -- Mosfet M_M3, model CMOSP: Pd = 0 is less than W
WARNING -- Mosfet M_M3, model CMOSP: Ps = 0 is less than W
Mosfet M_M12, model CMOSP: Using BSIM VERSION 3.1 or lower
WARNING -- Mosfet M_M12, model CMOSP: Pd = 0 is less than W
WARNING -- Mosfet M_M12, model CMOSP: Ps = 0 is less than W
**** 05/26/10 11:23:55 ******* PSpice 16.0.0 (July 2006) ****** ID# 0 ********

 **** 05/12/10 18:10:37 ******* PSpice 16.0.0 (July 2006) ****** ID# 0 ********


 ****     MOSFET MODEL PARAMETERS


******************************************************************************




               CMOSN           CMOSP           
               NMOS            PMOS            
  T_Measured   27              27            
   T_Current   27              27            
       LEVEL    7               7            
           L  100.000000E-06  100.000000E-06 
           W  100.000000E-06  100.000000E-06 
         VTO     .299302        -.401632     
          KP  470.883200E-06  470.883200E-06 
       GAMMA    0               0            
      LAMBDA    0               0            
         RSH    6               6.4          
          IS    1.000000E-15    1.000000E-15 
          JS  100.000000E-06  100.000000E-06 
          PB     .980128         .821464     
        PBSW     .8              .8008       
          CJ  815.376400E-06    1.165977E-03 
        CJSW  166.520200E-12  122.005600E-12 
          MJ     .606194         .425655     
        MJSW     .169221         .1001       
        CGSO  500.000000E-12  500.000000E-12 
        CGDO  500.000000E-12  500.000000E-12 
        CGBO    1.000000E-12    1.000000E-12 
         TOX    4.400000E-09    4.400000E-09 
          XJ  100.000000E-09  100.000000E-09 
       UCRIT   10.000000E+03   10.000000E+03 
       DELTA     .01             .01         
      DIOMOD    2               2            
          K1     .542117         .598774     
          K2    -.035133     -630.087300E-09 
        LETA    0               0            
        WETA    0               0            
          U0  268.8192        120.6045       
       XPART     .5              .5          
        VTH0     .299302        -.401632     
          K3    1.000000E-03     .081248     
          W0  100.000000E-09    1.000000E-06 
         NLX  228.107500E-09   42.193340E-09 
        DVT0     .882304         .948505     
        DVT1     .324768         .682461     
          UA   -1.551592E-09    1.640708E-09 
          UB    2.710709E-18    1.272651E-21 
          UC   46.128640E-12 -100.000000E-12 
        VSAT  116.006100E+03  182.237700E+03 
        RDSW  150             726.9944       
        VOFF    -.091862        -.15         
     NFACTOR    1.807002         .921842     
        PCLM    2.027608         .151904     
      PDIBL1     .784214         .056431     
      PDIBL2    -.042689         .012341     
       DROUT    1                .470272     
      PSCBE1    2.314588E+09    4.022317E+09 
      PSCBE2  500.000000E-12    7.751373E-09 
          A0    1.525088         .904176     
          A1    6.962179E-03    8.069322E-03 
          A2     .524367         .560796     
       NPEAK  235.490000E+15  415.890000E+15 
         LDD    0               0            
        LITL   36.331810E-09   36.331810E-09 
         UC1  -56.000000E-12  -56.000000E-12 
        PVAG                     .124556     
        KETA    -.015366         .020751     
        ETA0    5.535422E-03    1.016564E-03 
        ETAB -671.692500E-06   -1.910199E-03 
         K3B    5.015682       19.7189       
        DVT2    -.056267        -.3          
        DSUB    3.692569E-03     .014544     
         AGS     .400988         .131884     
       DVT1W    0               0            
       DVT2W    0               0            
        PRWG     .340675        -.049475     
        PRWB    -.183865        -.420982     
     PDIBLCB    -.1            -1.000000E-03 
         DWG    5.852475E-09  -30.588980E-09 
         DWB   11.572970E-09  -11.142310E-09 
          B0  -44.157810E-09    1.909663E-06 
          B1                    5.000000E-06 
        LINT   20.701890E-09   26.472300E-09 
        WINT   12.149120E-09                 
         DLC   20.701890E-09   26.472300E-09 
         DWC   12.149120E-09    0            
          CF    0               0            
        NOIA  100.000000E+18    9.900001E+18 
        NOIB   50.000000E+03    2.400000E+03 
        NOIC   -1.400000E-12    1.400000E-12 
       LKETA   -1.853360E-03   -8.835292E-03 
       WKETA    3.404068E-03     .030613     
       PVSAT    1.045662E+03   50            
       PKETA    -.0116         -5.087778E-03 
       PVTH0   -3.570294E-03  633.898700E-06 
         PUA  -25.147800E-12  364.727200E-12 
         PUB   21.902820E-24                 
         PU0   -2.447231        7.159787     
       PRDSW   -1.670209       -5            
       PETA0 -100.000000E-06  100.000000E-06 
         PK2    3.193075E-03   31.405140E-06 
         VTM     .025864         .025864     
       PBSWG     .8              .8008       
       MJSWG     .169221         .1001       
       CJSWG  330.000000E-12  422.000000E-12 


Mosfet M_M1, model CMOSN: Using BSIM VERSION 3.1 or lower
WARNING -- Mosfet M_M1, model CMOSN: Pd = 0 is less than W
WARNING -- Mosfet M_M1, model CMOSN: Ps = 0 is less than W
Mosfet M_M13, model CMOSN: Using BSIM VERSION 3.1 or lower
WARNING -- Mosfet M_M13, model CMOSN: Pd = 0 is less than W
WARNING -- Mosfet M_M13, model CMOSN: Ps = 0 is less than W
Mosfet M_M5, model CMOSN: Using BSIM VERSION 3.1 or lower
WARNING -- Mosfet M_M5, model CMOSN: Pd = 0 is less than W
WARNING -- Mosfet M_M5, model CMOSN: Ps = 0 is less than W
Mosfet M_M3, model CMOSP: Using BSIM VERSION 3.1 or lower
WARNING -- Mosfet M_M3, model CMOSP: Pd = 0 is less than W
WARNING -- Mosfet M_M3, model CMOSP: Ps = 0 is less than W
Mosfet M_M12, model CMOSP: Using BSIM VERSION 3.1 or lower
WARNING -- Mosfet M_M12, model CMOSP: Pd = 0 is less than W
WARNING -- Mosfet M_M12, model CMOSP: Ps = 0 is less than W
Mosfet M_M1, model CMOSN: Using BSIM VERSION 3.1 or lower
WARNING -- Mosfet M_M1, model CMOSN: Pd = 0 is less than W
WARNING -- Mosfet M_M1, model CMOSN: Ps = 0 is less than W
Mosfet M_M13, model CMOSN: Using BSIM VERSION 3.1 or lower
WARNING -- Mosfet M_M13, model CMOSN: Pd = 0 is less than W
WARNING -- Mosfet M_M13, model CMOSN: Ps = 0 is less than W
Mosfet M_M5, model CMOSN: Using BSIM VERSION 3.1 or lower
WARNING -- Mosfet M_M5, model CMOSN: Pd = 0 is less than W
WARNING -- Mosfet M_M5, model CMOSN: Ps = 0 is less than W
Mosfet M_M3, model CMOSP: Using BSIM VERSION 3.1 or lower
WARNING -- Mosfet M_M3, model CMOSP: Pd = 0 is less than W
WARNING -- Mosfet M_M3, model CMOSP: Ps = 0 is less than W
Mosfet M_M12, model CMOSP: Using BSIM VERSION 3.1 or lower
WARNING -- Mosfet M_M12, model CMOSP: Pd = 0 is less than W
WARNING -- Mosfet M_M12, model CMOSP: Ps = 0 is less than W
**** 05/26/10 11:23:55 ******* PSpice 16.0.0 (July 2006) ****** ID# 0 ********

 **** 05/12/10 18:10:37 ******* PSpice 16.0.0 (July 2006) ****** ID# 0 ********


 ****     INITIAL TRANSIENT SOLUTION       TEMPERATURE =   27.000 DEG C

 ****     CURRENT STEP                     V_VIN =    -.01  


******************************************************************************



 NODE   VOLTAGE     NODE   VOLTAGE     NODE   VOLTAGE     NODE   VOLTAGE


(NDNEG)    2.3990  (NDOUT)    3.2120  (NDPOS)    1.1168  (VBIAS)    1.0000      

(N64870)    3.3000 (NDBIAS)     .6707 (VINNEG)    1.3100 (VINPOS)    1.3200     

(N652820)    1.3200                   (N1312720)    1.3200                  




    VOLTAGE SOURCE CURRENTS
    NAME         CURRENT

    V_VIN        0.000E+00
    V_VDD       -1.093E-03
    V_VBIAS      0.000E+00
    V_VQ2        0.000E+00
    V_VQ1        0.000E+00
    V_VREF       0.000E+00

    TOTAL POWER DISSIPATION   3.61E-03  WATTS


Mosfet M_M1, model CMOSN: Using BSIM VERSION 3.1 or lower
WARNING -- Mosfet M_M1, model CMOSN: Pd = 0 is less than W
WARNING -- Mosfet M_M1, model CMOSN: Ps = 0 is less than W
Mosfet M_M13, model CMOSN: Using BSIM VERSION 3.1 or lower
WARNING -- Mosfet M_M13, model CMOSN: Pd = 0 is less than W
WARNING -- Mosfet M_M13, model CMOSN: Ps = 0 is less than W
Mosfet M_M5, model CMOSN: Using BSIM VERSION 3.1 or lower
WARNING -- Mosfet M_M5, model CMOSN: Pd = 0 is less than W
WARNING -- Mosfet M_M5, model CMOSN: Ps = 0 is less than W
Mosfet M_M3, model CMOSP: Using BSIM VERSION 3.1 or lower
WARNING -- Mosfet M_M3, model CMOSP: Pd = 0 is less than W
WARNING -- Mosfet M_M3, model CMOSP: Ps = 0 is less than W
Mosfet M_M12, model CMOSP: Using BSIM VERSION 3.1 or lower
WARNING -- Mosfet M_M12, model CMOSP: Pd = 0 is less than W
WARNING -- Mosfet M_M12, model CMOSP: Ps = 0 is less than W
**** 05/26/10 11:23:55 ******* PSpice 16.0.0 (July 2006) ****** ID# 0 ********

 **** 05/12/10 18:10:37 ******* PSpice 16.0.0 (July 2006) ****** ID# 0 ********


 ****     INITIAL TRANSIENT SOLUTION       TEMPERATURE =   27.000 DEG C

 ****     CURRENT STEP                     V_VIN =   -5.0000E-03


******************************************************************************



 NODE   VOLTAGE     NODE   VOLTAGE     NODE   VOLTAGE     NODE   VOLTAGE


(NDNEG)    2.3983  (NDOUT)    3.1758  (NDPOS)    1.7413  (VBIAS)    1.0000      

(N64870)    3.3000 (NDBIAS)     .6748 (VINNEG)    1.3150 (VINPOS)    1.3200     

(N652820)    1.3200                   (N1312720)    1.3200                  




    VOLTAGE SOURCE CURRENTS
    NAME         CURRENT

    V_VIN        0.000E+00
    V_VDD       -1.093E-03
    V_VBIAS      0.000E+00
    V_VQ2        0.000E+00
    V_VQ1        0.000E+00
    V_VREF       0.000E+00

    TOTAL POWER DISSIPATION   3.61E-03  WATTS


ERROR -- Convergence problem in transient analysis at Time =  3.061E-09
         Time step =  14.90E-21, minimum allowable step size =  100.0E-21

  These voltages failed to converge:

    V(NDPOS)                  =     2.056V  \     2.058V
    V(NDOUT)                  =     3.748V  \     3.752V

  These supply currents failed to converge:

    I(V_VIN)                  =   -1.522KA  \   835.33uA
    I(V_VDD)                  =    13.63KA  \    14.86mA
    I(V_VBIAS)                =   -2.593KA  \   -2.325mA
    I(V_VQ2)                  =   -4.301KA  \   -5.837mA
    I(V_VQ1)                  =   -1.522KA  \   835.33uA
    I(V_VREF)                 =   -4.301KA  \   -5.837mA

  These devices failed to converge:
    M_M12     



  Last node voltages tried were:

 NODE   VOLTAGE     NODE   VOLTAGE     NODE   VOLTAGE     NODE   VOLTAGE


(NDNEG)    2.3983  (NDOUT)    3.7480  (NDPOS)    2.0558  (VBIAS)    1.0000      

(N64870)    3.3000 (NDBIAS)     .6748 (VINNEG)    1.3150 (VINPOS)    1.3200     

(N652820)    1.3200                   (N1312720)    1.3200                  


**** Interrupt ****
**** Param: RELTOL = 0.001
**** Param: ABSTOL = 1e-012
**** Param: VNTOL = 1e-006
**** Param: GMIN = 1e-012
**** Param: TSTOP = 1e-007
**** Param: TMAX = 1e-012
**** Param: ITL1 = 600
**** Param: ITL2 = 100
**** Param: ITL4 = 10

 **** Published Runtime Parameters *****************************
                                                               
                                       ABSTOL =      1.0000E-12
                                         GMIN =      1.0000E-12
                               I_INYECCION.ac =      0.0000E+00
                          I_INYECCION.acphase =      0.0000E+00
                               I_INYECCION.dc =      0.0000E+00
                                         ITL1 =      6.0000E+02
                                         ITL2 =      1.0000E+02
                                         ITL4 =      1.0000E+01
                                       RELTOL =      1.0000E-03
                                       RUNFOR =      0.0000E+00
                                         TMAX =      1.0000E-12
                                        TSTOP =      1.0000E-07
                                   V_VBIAS.ac =      0.0000E+00
                              V_VBIAS.acphase =      0.0000E+00
                                   V_VBIAS.dc =      1.0000E+00
                                     V_VDD.ac =      0.0000E+00
                                V_VDD.acphase =      0.0000E+00
                                     V_VDD.dc =      3.3000E+00
                                     V_VIN.ac =      0.0000E+00
                                V_VIN.acphase =      0.0000E+00
                                     V_VIN.dc =     -5.0000E-03
                                     V_VQ1.ac =      0.0000E+00
                                V_VQ1.acphase =      0.0000E+00
                                     V_VQ1.dc =      1.3200E+00
                                     V_VQ2.ac =      0.0000E+00
                                V_VQ2.acphase =      0.0000E+00
                                     V_VQ2.dc =      1.3200E+00
                                    V_VREF.ac =      0.0000E+00
                               V_VREF.acphase =      0.0000E+00
                                    V_VREF.dc =      0.0000E+00
                                        VNTOL =      1.0000E-06
                                               
               

ERROR -- Convergence problem in transient analysis at Time =  3.061E-09
         Time step =  14.90E-21, minimum allowable step size =  100.0E-21

  These voltages failed to converge:

    V(NDPOS)                  =     2.056V  \     2.058V
    V(NDOUT)                  =     3.748V  \     3.752V

  These supply currents failed to converge:

    I(V_VIN)                  =   -1.522KA  \   835.33uA
    I(V_VDD)                  =    13.63KA  \    14.86mA
    I(V_VBIAS)                =   -2.593KA  \   -2.325mA
    I(V_VQ2)                  =   -4.301KA  \   -5.837mA
    I(V_VQ1)                  =   -1.522KA  \   835.33uA
    I(V_VREF)                 =   -4.301KA  \   -5.837mA

  These devices failed to converge:
    M_M12     



  Last node voltages tried were:

 NODE   VOLTAGE     NODE   VOLTAGE     NODE   VOLTAGE     NODE   VOLTAGE


(NDNEG)    2.3983  (NDOUT)    3.7480  (NDPOS)    2.0558  (VBIAS)    1.0000      

(N64870)    3.3000 (NDBIAS)     .6748 (VINNEG)    1.3150 (VINPOS)    1.3200     

(N652820)    1.3200                   (N1312720)    1.3200                  


**** Interrupt ****
