
**** 03/16/10 16:33:08 ******* PSpice 16.0.0 (July 2006) ****** ID# 0 ********

 ** Profile: "NEG-transient"  [ D:\Documents\TESIS\fiocs\Design\I-NAND\OrCAD\i-nand-pspicefiles\neg\transient.sim ] 


 ****     CIRCUIT DESCRIPTION


******************************************************************************




** Creating circuit file "transient.cir" 
** WARNING: THIS AUTOMATICALLY GENERATED FILE MAY BE OVERWRITTEN BY SUBSEQUENT SIMULATIONS

*Libraries: 
* Profile Libraries :
* Local Libraries :
* From [PSPICE NETLIST] section of C:\OrCAD\OrCAD_16.0\tools\PSpice\PSpice.ini file:
.lib "nom.lib" 

*Analysis directives: 
.DC LIN V_Vin 0 3.3 .001 
.PROBE V(alias(*)) I(alias(*)) W(alias(*)) D(alias(*)) NOISE(alias(*)) 
.INC "..\NEG.net" 



**** INCLUDING NEG.net ****
* source I-NAND
V_Vin         IN 0 0Vdc
V_VDD         N29931 0 3.3
M_M5         OUT IN N29931 N29931 CMOSP  
+ L=.18u  
+ W=.2u         
M_M6         OUT IN 0 0 CMOSN  
+ L=.18u  
+ W=.18u         

**** RESUMING transient.cir ****
.END

ERROR -- Model CMOSP used by M_M5 is undefined
ERROR -- Model CMOSN used by M_M6 is undefined