
Circuit: * gnetlist -g spice-sdb -o testing.cir testing.sch

Doing analysis at TEMP = 27.000000 and TNOM = 27.000000


Initial Transient Solution
--------------------------

Node                                   Voltage
----                                   -------
v8                                           0
v7                                           0
out2                                         5
v4                                           0
v3                                           0
x2.11                                0.0149929
v6                                           0
x2.10                                0.0350983
v5                                           0
x2.5                                 0.0661535
vcc                                          5
v2                                           0
x2.3                                  0.305159
out5                                         5
x5.13                               0.00978765
x5.1                                  0.323672
x5.12                                0.0215202
x5.11                                 0.036227
x5.5                                 0.0560283
x5.3                                 0.0867556
out4                                         5
x4.3                                  0.242609
x3.10                                 0.020235
x3.5                                  0.051433
out3                                         5
x3.3                                  0.291579
out1                                   4.99999
v5#branch                                    0
v2#branch                                    0
v6#branch                                    0
v1#branch                         -2.50018e-05
v3#branch                                    0
v4#branch                                    0
v7#branch                                    0
v8#branch                                    0


No. of Data Rows : 68361

