
**** 07/28/09 20:26:56 ******** PSpice Lite (Oct 2008) ******** ID# 10813 ****

 ** Profile: "SCHEMATIC1-test1"  [ D:\DOCUMENTS\TESIS\TRUNK\DESIGN\I-TESTCURRENT-001\I-TESTCURRENT-001-PSpiceFiles\SCHEMATIC1\test1.s


 ****     CIRCUIT DESCRIPTION


******************************************************************************




** Creating circuit file "test1.cir" 
** WARNING: THIS AUTOMATICALLY GENERATED FILE MAY BE OVERWRITTEN BY SUBSEQUENT SIMULATIONS

*Libraries: 
* Profile Libraries :
* Local Libraries :
.LIB "../../../i-testcurrent-001-pspicefiles/i-testcurrent-001.lib" 
* From [PSPICE NETLIST] section of C:\OrCAD\OrCAD_16.2\tools\PSpice\PSpice.ini file:
.lib "nomd.lib" 

*Analysis directives: 
.TRAN  0 100ms 0 0.01 
.PROBE V(alias(*)) I(alias(*)) W(alias(*)) D(alias(*)) NOISE(alias(*)) 
.INC "..\SCHEMATIC1.net" 



**** INCLUDING SCHEMATIC1.net ****
* source I-TESTCURRENT-001
I_I2         N15986 0 DC 0Adc AC 0Aac
+PULSE 0 3m 0 4m 8m 6m 0
I_I1         N16014 N15986 DC 0Adc AC 0Aac
+PULSE 0 10m 0 5m 5m 0 0
R_R2         0 ITEST  1k TC=0,0 
R_R1         N16014 ITEST  1k TC=0,0 

**** RESUMING test1.cir ****
.END

ERROR -- Node N15986 is floating