
**** 10/08/09 20:26:24 ******* PSpice 10.5.0 (Jan 2005) ******* ID# 0 ********

 ** Profile: "S-NAND-3-bias S-NAND-3"  [ D:\Documents\TESIS\TRUNK\Design\I-FFD-01\I-FFD-01-PSpiceFiles\S-NAND-3\bias S-NAND-3.sim ] 


 ****     CIRCUIT DESCRIPTION


******************************************************************************




** Creating circuit file "bias S-NAND-3.cir" 
** WARNING: THIS AUTOMATICALLY GENERATED FILE MAY BE OVERWRITTEN BY SUBSEQUENT SIMULATIONS

*Libraries: 
* Profile Libraries :
* Local Libraries :
* From [PSPICE NETLIST] section of C:\OrCAD\OrCAD_10.5\tools\PSpice\PSpice.ini file:
.lib "nom.lib" 

*Analysis directives: 
.PROBE V(alias(*)) I(alias(*)) W(alias(*)) D(alias(*)) NOISE(alias(*)) 
.INC "..\S-NAND-3.net" 



**** INCLUDING S-NAND-3.net ****
* source I-FFD-01
M_M1         N45231 N45251 N45225 N45225 MbreakN           
M_M2         N45225 N45251 N45964 N45964 MbreakN           
M_M3         N45231 N45251 N45251 N45251 MbreakP           
M_M5         N45964 N45251 0 0 MbreakN           
M_M4         N45231 N45251 N45251 N45251 MbreakP           
V_V1         N45251 0 5
M_M6         N45231 N45251 N45251 N45251 MbreakP           

**** RESUMING "bias S-NAND-3.cir" ****
.END

**** 10/08/09 20:26:24 ******* PSpice 10.5.0 (Jan 2005) ******* ID# 0 ********

 ** Profile: "S-NAND-3-bias S-NAND-3"  [ D:\Documents\TESIS\TRUNK\Design\I-FFD-01\I-FFD-01-PSpiceFiles\S-NAND-3\bias S-NAND-3.sim ] 


 ****     MOSFET MODEL PARAMETERS


******************************************************************************




               MbreakN         MbreakP         
               NMOS            PMOS            
       LEVEL    1               1            
           L  100.000000E-06  100.000000E-06 
           W  100.000000E-06  100.000000E-06 
         VTO    0               0            
          KP   20.000000E-06   20.000000E-06 
       GAMMA    0               0            
         PHI     .6              .6          
      LAMBDA    0               0            
          IS   10.000000E-15   10.000000E-15 
          JS    0               0            
          PB     .8              .8          
        PBSW     .8              .8          
          CJ    0               0            
        CJSW    0               0            
        CGSO    0               0            
        CGDO    0               0            
        CGBO    0               0            
         TOX    0               0            
          XJ    0               0            
       UCRIT   10.000000E+03   10.000000E+03 
      DIOMOD    1               1            
         VFB    0               0            
        LETA    0               0            
        WETA    0               0            
          U0    0               0            
        TEMP    0               0            
         VDD    0               0            
       XPART    0               0            


**** 10/08/09 20:26:24 ******* PSpice 10.5.0 (Jan 2005) ******* ID# 0 ********

 ** Profile: "S-NAND-3-bias S-NAND-3"  [ D:\Documents\TESIS\TRUNK\Design\I-FFD-01\I-FFD-01-PSpiceFiles\S-NAND-3\bias S-NAND-3.sim ] 


 ****     SMALL SIGNAL BIAS SOLUTION       TEMPERATURE =   27.000 DEG C


******************************************************************************



 NODE   VOLTAGE     NODE   VOLTAGE     NODE   VOLTAGE     NODE   VOLTAGE


(N45225) 300.6E-09 (N45231) 450.9E-09 (N45251)    5.0000 (N45964) 150.3E-09 




    VOLTAGE SOURCE CURRENTS
    NAME         CURRENT

    V_V1        -1.503E-11

    TOTAL POWER DISSIPATION   7.52E-11  WATTS



          JOB CONCLUDED

**** 10/08/09 20:26:24 ******* PSpice 10.5.0 (Jan 2005) ******* ID# 0 ********

 ** Profile: "S-NAND-3-bias S-NAND-3"  [ D:\Documents\TESIS\TRUNK\Design\I-FFD-01\I-FFD-01-PSpiceFiles\S-NAND-3\bias S-NAND-3.sim ] 


 ****     JOB STATISTICS SUMMARY


******************************************************************************



  Total job time (using Solver 1)   =         .05
