
**** 05/05/10 11:55:04 ******* PSpice 16.0.0 (July 2006) ****** ID# 0 ********

 ** Profile: "DOBLE-COMP-PRUEBA"  [ D:\Documents\TESIS\fiocs\Design\I-COMPARADOR-01\OrCAD\i-comparador-01-pspicefiles\doble-comp\prue


 ****     CIRCUIT DESCRIPTION


******************************************************************************




** Creating circuit file "PRUEBA.cir" 
** WARNING: THIS AUTOMATICALLY GENERATED FILE MAY BE OVERWRITTEN BY SUBSEQUENT SIMULATIONS

*Libraries: 
* Profile Libraries :
* Local Libraries :
.LIB "../../../i-comparador-01-pspicefiles/i-comparador-01.lib" 
* From [PSPICE NETLIST] section of C:\OrCAD\OrCAD_16.0\tools\PSpice\PSpice.ini file:
.lib "nom.lib" 

*Analysis directives: 
.DC LIN V_VQ- .5 1.5 100u 
.PROBE V(alias(*)) I(alias(*)) W(alias(*)) D(alias(*)) NOISE(alias(*)) 
.INC "..\DOBLE-COMP.net" 



**** INCLUDING DOBLE-COMP.net ****
* source I-COMPARADOR-01
M_M3         N44239 N44239 N43983 N43983 CMOSP  
+ L=1u  
+ W=1u         
M_M4         N48205 N44239 N43983 N43983 CMOSP  
+ L=1u  
+ W=1u         
M_M7         N55353 N44385 0 0 CMOSN  
+ L=.4  
----$
ERROR -- Length must be less than 0.01 meter
+ W=320u         
M_M5         N44303 N44385 0 0 CMOSN  
+ L=20u  
+ W=20u         
V_VDD         N43983 0 3.3
M_M9         N55353 N48205 N43983 N43983 CMOSP  
+ L=.4u  
+ W=370u         
V_VBIAS         N44385 0 .55
V_VQ+         IN+ 0 1
M_M1         N44239 IN- N44303 0 CMOSN  
+ L=1u  
+ W=458u         
V_VQ-         IN- 0 1
M_M2         N48205 IN+ N44303 0 CMOSN  
+ L=1u  
+ W=458u         

**** RESUMING PRUEBA.cir ****
.END
