
Circuit: * gnetlist -g spice-sdb -o i-ffd.sch.cir i-ffd.sch

Doing analysis at TEMP = 27.000000 and TNOM = 27.000000


Initial Transient Solution
--------------------------

Node                                   Voltage
----                                   -------
d                                            0
out_2                                 0.206628
vcc                                        3.3
out1                                   3.29863
x                                          3.3
x1.3                                   2.34007
clck                                         0
2                                  0.000121204
x4.3                                  0.402629
y                                      3.29983
x6.3                                  0.100927
1                                      3.29983
x3.3                                   2.46525
x5.3                               6.05999e-05
x2.2                               4.41101e-05
x2.1                                    2.4654
v1#branch                         -3.11184e-05
v2#branch                                    0
v3#branch                                    0


No. of Data Rows : 100125

