
**** 03/29/10 22:39:22 ******* PSpice 16.0.0 (July 2006) ****** ID# 0 ********

 ** Profile: "TEST-transient"  [ D:\Documents\TESIS\fiocs\Design\I-FLASH-01\OrCAD\I-FLASH-6BITS\i-flash-6bits-pspicefiles\test\transi


 ****     CIRCUIT DESCRIPTION


******************************************************************************




** Creating circuit file "transient.cir" 
** WARNING: THIS AUTOMATICALLY GENERATED FILE MAY BE OVERWRITTEN BY SUBSEQUENT SIMULATIONS

*Libraries: 
* Profile Libraries :
* Local Libraries :
.LIB "../../../i-flash-6bits-pspicefiles/i-flash-6bits.lib" 
* From [PSPICE NETLIST] section of C:\OrCAD\OrCAD_16.0\tools\PSpice\PSpice.ini file:
.lib "nom.lib" 

*Analysis directives: 
.TRAN  0 2u 0 
.PROBE V(alias(*)) I(alias(*)) W(alias(*)) D(alias(*)) NOISE(alias(*)) 
.INC "..\TEST.net" 



**** INCLUDING TEST.net ****
* source I-FLASH-6BITS
R_R5         N125119 N127729  100k  
V_Vbias         N115811 0 .33
R_R12         MSB N127729  100k  
R_R4         N124916 N127729  100k  
M_U2_C7_M4         U2_C7_N26867 U2_C7_N27085 N115794 N115794 CMOSP  
+ L=.2u  
+ W=.6u         
M_U2_C7_M5         U2_C7_N27165 N115811 0 0 CMOSN  
+ L=.2u  
+ W=.6u         
M_U2_C7_M6         Q7 U2_C7_N26867 N115794 N115794 CMOSP  
+ L=.2u  
+ W=.8u         
M_U2_C7_M7         Q7 N115811 0 0 CMOSN  
+ L=.2u  
+ W=.4u         
M_U2_C7_M1         U2_C7_N27085 N115961 U2_C7_N27165 0 CMOSN  
+ L=.2u  
+ W=.4u         
M_U2_C7_M2         U2_C7_N26867 N117570 U2_C7_N27165 0 CMOSN  
+ L=.2u  
+ W=.4u         
M_U2_C7_M3         U2_C7_N27085 U2_C7_N27085 N115794 N115794 CMOSP  
+ L=.2u  
+ W=.6u         
M_U2_C10_M4         U2_C10_N26867 U2_C10_N27085 N115794 N115794 CMOSP  
+ L=.2u  
+ W=.6u         
M_U2_C10_M5         U2_C10_N27165 N115811 0 0 CMOSN  
+ L=.2u  
+ W=.6u         
M_U2_C10_M6         Q10 U2_C10_N26867 N115794 N115794 CMOSP  
+ L=.2u  
+ W=.8u         
M_U2_C10_M7         Q10 N115811 0 0 CMOSN  
+ L=.2u  
+ W=.4u         
M_U2_C10_M1         U2_C10_N27085 N115961 U2_C10_N27165 0 CMOSN  
+ L=.2u  
+ W=.4u         
M_U2_C10_M2         U2_C10_N26867 N117580 U2_C10_N27165 0 CMOSN  
+ L=.2u  
+ W=.4u         
M_U2_C10_M3         U2_C10_N27085 U2_C10_N27085 N115794 N115794 CMOSP  
+ L=.2u  
+ W=.6u         
M_U2_C21_M4         U2_C21_N26867 U2_C21_N27085 N115794 N115794 CMOSP  
+ L=.2u  
+ W=.6u         
M_U2_C21_M5         U2_C21_N27165 N115811 0 0 CMOSN  
+ L=.2u  
+ W=.6u         
M_U2_C21_M6         Q21 U2_C21_N26867 N115794 N115794 CMOSP  
+ L=.2u  
+ W=.8u         
M_U2_C21_M7         Q21 N115811 0 0 CMOSN  
+ L=.2u  
+ W=.4u         
M_U2_C21_M1         U2_C21_N27085 N115961 U2_C21_N27165 0 CMOSN  
+ L=.2u  
+ W=.4u         
M_U2_C21_M2         U2_C21_N26867 N117526 U2_C21_N27165 0 CMOSN  
+ L=.2u  
+ W=.4u         
M_U2_C21_M3         U2_C21_N27085 U2_C21_N27085 N115794 N115794 CMOSP  
+ L=.2u  
+ W=.6u         
M_U2_C28_M4         U2_C28_N26867 U2_C28_N27085 N115794 N115794 CMOSP  
+ L=.2u  
+ W=.6u         
M_U2_C28_M5         U2_C28_N27165 N115811 0 0 CMOSN  
+ L=.2u  
+ W=.6u         
M_U2_C28_M6         Q28 U2_C28_N26867 N115794 N115794 CMOSP  
+ L=.2u  
+ W=.8u         
M_U2_C28_M7         Q28 N115811 0 0 CMOSN  
+ L=.2u  
+ W=.4u         
M_U2_C28_M1         U2_C28_N27085 N115961 U2_C28_N27165 0 CMOSN  
+ L=.2u  
+ W=.4u         
M_U2_C28_M2         U2_C28_N26867 N117540 U2_C28_N27165 0 CMOSN  
+ L=.2u  
+ W=.4u         
M_U2_C28_M3         U2_C28_N27085 U2_C28_N27085 N115794 N115794 CMOSP  
+ L=.2u  
+ W=.6u         
M_U2_C51_M4         U2_C51_N26867 U2_C51_N27085 N115794 N115794 CMOSP  
+ L=.2u  
+ W=.6u         
M_U2_C51_M5         U2_C51_N27165 N115811 0 0 CMOSN  
+ L=.2u  
+ W=.6u         
M_U2_C51_M6         Q51 U2_C51_N26867 N115794 N115794 CMOSP  
+ L=.2u  
+ W=.8u         
M_U2_C51_M7         Q51 N115811 0 0 CMOSN  
+ L=.2u  
+ W=.4u         
M_U2_C51_M1         U2_C51_N27085 N115961 U2_C51_N27165 0 CMOSN  
+ L=.2u  
+ W=.4u         
M_U2_C51_M2         U2_C51_N26867 N119905 U2_C51_N27165 0 CMOSN  
+ L=.2u  
+ W=.4u         
M_U2_C51_M3         U2_C51_N27085 U2_C51_N27085 N115794 N115794 CMOSP  
+ L=.2u  
+ W=.6u         
M_U2_C8_M4         U2_C8_N26867 U2_C8_N27085 N115794 N115794 CMOSP  
+ L=.2u  
+ W=.6u         
M_U2_C8_M5         U2_C8_N27165 N115811 0 0 CMOSN  
+ L=.2u  
+ W=.6u         
M_U2_C8_M6         Q8 U2_C8_N26867 N115794 N115794 CMOSP  
+ L=.2u  
+ W=.8u         
M_U2_C8_M7         Q8 N115811 0 0 CMOSN  
+ L=.2u  
+ W=.4u         
M_U2_C8_M1         U2_C8_N27085 N115961 U2_C8_N27165 0 CMOSN  
+ L=.2u  
+ W=.4u         
M_U2_C8_M2         U2_C8_N26867 N117576 U2_C8_N27165 0 CMOSN  
+ L=.2u  
+ W=.4u         
M_U2_C8_M3         U2_C8_N27085 U2_C8_N27085 N115794 N115794 CMOSP  
+ L=.2u  
+ W=.6u         
M_U2_C11_M4         U2_C11_N26867 U2_C11_N27085 N115794 N115794 CMOSP  
+ L=.2u  
+ W=.6u         
M_U2_C11_M5         U2_C11_N27165 N115811 0 0 CMOSN  
+ L=.2u  
+ W=.6u         
M_U2_C11_M6         Q11 U2_C11_N26867 N115794 N115794 CMOSP  
+ L=.2u  
+ W=.8u         
M_U2_C11_M7         Q11 N115811 0 0 CMOSN  
+ L=.2u  
+ W=.4u         
M_U2_C11_M1         U2_C11_N27085 N115961 U2_C11_N27165 0 CMOSN  
+ L=.2u  
+ W=.4u         
M_U2_C11_M2         U2_C11_N26867 N117562 U2_C11_N27165 0 CMOSN  
+ L=.2u  
+ W=.4u         
M_U2_C11_M3         U2_C11_N27085 U2_C11_N27085 N115794 N115794 CMOSP  
+ L=.2u  
+ W=.6u         
M_U2_C41_M4         U2_C41_N26867 U2_C41_N27085 N115794 N115794 CMOSP  
+ L=.2u  
+ W=.6u         
M_U2_C41_M5         U2_C41_N27165 N115811 0 0 CMOSN  
+ L=.2u  
+ W=.6u         
M_U2_C41_M6         Q41 U2_C41_N26867 N115794 N115794 CMOSP  
+ L=.2u  
+ W=.8u         
M_U2_C41_M7         Q41 N115811 0 0 CMOSN  
+ L=.2u  
+ W=.4u         
M_U2_C41_M1         U2_C41_N27085 N115961 U2_C41_N27165 0 CMOSN  
+ L=.2u  
+ W=.4u         
M_U2_C41_M2         U2_C41_N26867 N117502 U2_C41_N27165 0 CMOSN  
+ L=.2u  
+ W=.4u         
M_U2_C41_M3         U2_C41_N27085 U2_C41_N27085 N115794 N115794 CMOSP  
+ L=.2u  
+ W=.6u         
M_U2_C22_M4         U2_C22_N26867 U2_C22_N27085 N115794 N115794 CMOSP  
+ L=.2u  
+ W=.6u         
M_U2_C22_M5         U2_C22_N27165 N115811 0 0 CMOSN  
+ L=.2u  
+ W=.6u         
M_U2_C22_M6         Q22 U2_C22_N26867 N115794 N115794 CMOSP  
+ L=.2u  
+ W=.8u         
M_U2_C22_M7         Q22 N115811 0 0 CMOSN  
+ L=.2u  
+ W=.4u         
M_U2_C22_M1         U2_C22_N27085 N115961 U2_C22_N27165 0 CMOSN  
+ L=.2u  
+ W=.4u         
M_U2_C22_M2         U2_C22_N26867 N117528 U2_C22_N27165 0 CMOSN  
+ L=.2u  
+ W=.4u         
M_U2_C22_M3         U2_C22_N27085 U2_C22_N27085 N115794 N115794 CMOSP  
+ L=.2u  
+ W=.6u         
M_U2_C29_M4         U2_C29_N26867 U2_C29_N27085 N115794 N115794 CMOSP  
+ L=.2u  
+ W=.6u         
M_U2_C29_M5         U2_C29_N27165 N115811 0 0 CMOSN  
+ L=.2u  
+ W=.6u         
M_U2_C29_M6         Q29 U2_C29_N26867 N115794 N115794 CMOSP  
+ L=.2u  
+ W=.8u         
M_U2_C29_M7         Q29 N115811 0 0 CMOSN  
+ L=.2u  
+ W=.4u         
M_U2_C29_M1         U2_C29_N27085 N115961 U2_C29_N27165 0 CMOSN  
+ L=.2u  
+ W=.4u         
M_U2_C29_M2         U2_C29_N26867 N117542 U2_C29_N27165 0 CMOSN  
+ L=.2u  
+ W=.4u         
M_U2_C29_M3         U2_C29_N27085 U2_C29_N27085 N115794 N115794 CMOSP  
+ L=.2u  
+ W=.6u         
M_U2_C52_M4         U2_C52_N26867 U2_C52_N27085 N115794 N115794 CMOSP  
+ L=.2u  
+ W=.6u         
M_U2_C52_M5         U2_C52_N27165 N115811 0 0 CMOSN  
+ L=.2u  
+ W=.6u         
M_U2_C52_M6         Q52 U2_C52_N26867 N115794 N115794 CMOSP  
+ L=.2u  
+ W=.8u         
M_U2_C52_M7         Q52 N115811 0 0 CMOSN  
+ L=.2u  
+ W=.4u         
M_U2_C52_M1         U2_C52_N27085 N115961 U2_C52_N27165 0 CMOSN  
+ L=.2u  
+ W=.4u         
M_U2_C52_M2         U2_C52_N26867 N119907 U2_C52_N27165 0 CMOSN  
+ L=.2u  
+ W=.4u         
M_U2_C52_M3         U2_C52_N27085 U2_C52_N27085 N115794 N115794 CMOSP  
+ L=.2u  
+ W=.6u         
M_U2_C12_M4         U2_C12_N26867 U2_C12_N27085 N115794 N115794 CMOSP  
+ L=.2u  
+ W=.6u         
M_U2_C12_M5         U2_C12_N27165 N115811 0 0 CMOSN  
+ L=.2u  
+ W=.6u         
M_U2_C12_M6         Q12 U2_C12_N26867 N115794 N115794 CMOSP  
+ L=.2u  
+ W=.8u         
M_U2_C12_M7         Q12 N115811 0 0 CMOSN  
+ L=.2u  
+ W=.4u         
M_U2_C12_M1         U2_C12_N27085 N115961 U2_C12_N27165 0 CMOSN  
+ L=.2u  
+ W=.4u         
M_U2_C12_M2         U2_C12_N26867 N117560 U2_C12_N27165 0 CMOSN  
+ L=.2u  
+ W=.4u         
M_U2_C12_M3         U2_C12_N27085 U2_C12_N27085 N115794 N115794 CMOSP  
+ L=.2u  
+ W=.6u         
M_U2_C33_M4         U2_C33_N26867 U2_C33_N27085 N115794 N115794 CMOSP  
+ L=.2u  
+ W=.6u         
M_U2_C33_M5         U2_C33_N27165 N115811 0 0 CMOSN  
+ L=.2u  
+ W=.6u         
M_U2_C33_M6         Q33 U2_C33_N26867 N115794 N115794 CMOSP  
+ L=.2u  
+ W=.8u         
M_U2_C33_M7         Q33 N115811 0 0 CMOSN  
+ L=.2u  
+ W=.4u         
M_U2_C33_M1         U2_C33_N27085 N115961 U2_C33_N27165 0 CMOSN  
+ L=.2u  
+ W=.4u         
M_U2_C33_M2         U2_C33_N26867 N117518 U2_C33_N27165 0 CMOSN  
+ L=.2u  
+ W=.4u         
M_U2_C33_M3         U2_C33_N27085 U2_C33_N27085 N115794 N115794 CMOSP  
+ L=.2u  
+ W=.6u         
M_U2_U10_U6_M5         U2_U10_N62152 U2_U10_Y N115794 N115794 CMOSP  
+ L=.18u  
+ W=.2u         
M_U2_U10_U6_M6         U2_U10_N62152 U2_U10_Y U2_U10_U6_N39991 0 CMOSN  
+ L=.18u  
+ W=.18u         
M_U2_U10_U6_M2         U2_U10_U6_N39991 U2_N537478 0 0 CMOSN  
+ L=.18u  
+ W=.18u         
M_U2_U10_U6_M4         U2_U10_N62152 U2_N537478 N115794 N115794 CMOSP  
+ L=.18u  
+ W=.2u         
M_U2_U10_U1_M2         U2_U10_U1_N27355 N116065 U2_U10_U1_N27381
+  U2_U10_U1_N27381 CMOSN  
+ L=.18u  
+ W=.18u         
M_U2_U10_U1_M3         U2_U10_Y U2_U10_X N115794 N115794 CMOSP  
+ L=.18u  
+ W=.2u         
M_U2_U10_U1_M6         U2_U10_U1_N27381 U2_U10_N62152 0 0 CMOSN  
+ L=.18u  
+ W=.18u         
M_U2_U10_U1_M4         U2_U10_Y N116065 N115794 N115794 CMOSP  
+ L=.18u  
+ W=.2u         
M_U2_U10_U1_M1         U2_U10_Y U2_U10_X U2_U10_U1_N27355 U2_U10_U1_N27355
+  CMOSN  
+ L=.18u  
+ W=.18u         
M_U2_U10_U1_M5         U2_U10_Y U2_U10_N62152 N115794 N115794 CMOSP  
+ L=.18u  
+ W=.2u         
M_U2_U10_U2_M5         U2_U10_N62128 U2_U10_N62152 N115794 N115794 CMOSP  
+ L=.18u  
+ W=.2u         
M_U2_U10_U2_M6         U2_U10_N62128 U2_U10_N62152 U2_U10_U2_N39991 0 CMOSN  
+ L=.18u  
+ W=.18u         
M_U2_U10_U2_M2         U2_U10_U2_N39991 U2_U10_X 0 0 CMOSN  
+ L=.18u  
+ W=.18u         
M_U2_U10_U2_M4         U2_U10_N62128 U2_U10_X N115794 N115794 CMOSP  
+ L=.18u  
+ W=.2u         
M_U2_U10_U3_M5         U2_U10_X U2_U10_N62128 N115794 N115794 CMOSP  
+ L=.18u  
+ W=.2u         
M_U2_U10_U3_M6         U2_U10_X U2_U10_N62128 U2_U10_U3_N39991 0 CMOSN  
+ L=.18u  
+ W=.18u         
M_U2_U10_U3_M2         U2_U10_U3_N39991 N116065 0 0 CMOSN  
+ L=.18u  
+ W=.18u         
M_U2_U10_U3_M4         U2_U10_X N116065 N115794 N115794 CMOSP  
+ L=.18u  
+ W=.2u         
M_U2_U10_U4_M5         MSB U2_U10_X N115794 N115794 CMOSP  
+ L=.18u  
+ W=.2u         
M_U2_U10_U4_M6         MSB U2_U10_X U2_U10_U4_N39991 0 CMOSN  
+ L=.18u  
+ W=.18u         
M_U2_U10_U4_M2         U2_U10_U4_N39991 N125324 0 0 CMOSN  
+ L=.18u  
+ W=.18u         
M_U2_U10_U4_M4         MSB N125324 N115794 N115794 CMOSP  
+ L=.18u  
+ W=.2u         
M_U2_U10_U5_M5         N125324 MSB N115794 N115794 CMOSP  
+ L=.18u  
+ W=.2u         
M_U2_U10_U5_M6         N125324 MSB U2_U10_U5_N39991 0 CMOSN  
+ L=.18u  
+ W=.18u         
M_U2_U10_U5_M2         U2_U10_U5_N39991 U2_U10_Y 0 0 CMOSN  
+ L=.18u  
+ W=.18u         
M_U2_U10_U5_M4         N125324 U2_U10_Y N115794 N115794 CMOSP  
+ L=.18u  
+ W=.2u         
M_U2_C42_M4         U2_C42_N26867 U2_C42_N27085 N115794 N115794 CMOSP  
+ L=.2u  
+ W=.6u         
M_U2_C42_M5         U2_C42_N27165 N115811 0 0 CMOSN  
+ L=.2u  
+ W=.6u         
M_U2_C42_M6         Q42 U2_C42_N26867 N115794 N115794 CMOSP  
+ L=.2u  
+ W=.8u         
M_U2_C42_M7         Q42 N115811 0 0 CMOSN  
+ L=.2u  
+ W=.4u         
M_U2_C42_M1         U2_C42_N27085 N115961 U2_C42_N27165 0 CMOSN  
+ L=.2u  
+ W=.4u         
M_U2_C42_M2         U2_C42_N26867 N117486 U2_C42_N27165 0 CMOSN  
+ L=.2u  
+ W=.4u         
M_U2_C42_M3         U2_C42_N27085 U2_C42_N27085 N115794 N115794 CMOSP  
+ L=.2u  
+ W=.6u         
M_U2_C13_M4         U2_C13_N26867 U2_C13_N27085 N115794 N115794 CMOSP  
+ L=.2u  
+ W=.6u         
M_U2_C13_M5         U2_C13_N27165 N115811 0 0 CMOSN  
+ L=.2u  
+ W=.6u         
M_U2_C13_M6         Q13 U2_C13_N26867 N115794 N115794 CMOSP  
+ L=.2u  
+ W=.8u         
M_U2_C13_M7         Q13 N115811 0 0 CMOSN  
+ L=.2u  
+ W=.4u         
M_U2_C13_M1         U2_C13_N27085 N115961 U2_C13_N27165 0 CMOSN  
+ L=.2u  
+ W=.4u         
M_U2_C13_M2         U2_C13_N26867 N117558 U2_C13_N27165 0 CMOSN  
+ L=.2u  
+ W=.4u         
M_U2_C13_M3         U2_C13_N27085 U2_C13_N27085 N115794 N115794 CMOSP  
+ L=.2u  
+ W=.6u         
M_U2_U13_U6_M5         U2_U13_N62152 U2_U13_Y N115794 N115794 CMOSP  
+ L=.18u  
+ W=.2u         
M_U2_U13_U6_M6         U2_U13_N62152 U2_U13_Y U2_U13_U6_N39991 0 CMOSN  
+ L=.18u  
+ W=.18u         
M_U2_U13_U6_M2         U2_U13_U6_N39991 U2_N541218 0 0 CMOSN  
+ L=.18u  
+ W=.18u         
M_U2_U13_U6_M4         U2_U13_N62152 U2_N541218 N115794 N115794 CMOSP  
+ L=.18u  
+ W=.2u         
M_U2_U13_U1_M2         U2_U13_U1_N27355 N116065 U2_U13_U1_N27381
+  U2_U13_U1_N27381 CMOSN  
+ L=.18u  
+ W=.18u         
M_U2_U13_U1_M3         U2_U13_Y U2_U13_X N115794 N115794 CMOSP  
+ L=.18u  
+ W=.2u         
M_U2_U13_U1_M6         U2_U13_U1_N27381 U2_U13_N62152 0 0 CMOSN  
+ L=.18u  
+ W=.18u         
M_U2_U13_U1_M4         U2_U13_Y N116065 N115794 N115794 CMOSP  
+ L=.18u  
+ W=.2u         
M_U2_U13_U1_M1         U2_U13_Y U2_U13_X U2_U13_U1_N27355 U2_U13_U1_N27355
+  CMOSN  
+ L=.18u  
+ W=.18u         
M_U2_U13_U1_M5         U2_U13_Y U2_U13_N62152 N115794 N115794 CMOSP  
+ L=.18u  
+ W=.2u         
M_U2_U13_U2_M5         U2_U13_N62128 U2_U13_N62152 N115794 N115794 CMOSP  
+ L=.18u  
+ W=.2u         
M_U2_U13_U2_M6         U2_U13_N62128 U2_U13_N62152 U2_U13_U2_N39991 0 CMOSN  
+ L=.18u  
+ W=.18u         
M_U2_U13_U2_M2         U2_U13_U2_N39991 U2_U13_X 0 0 CMOSN  
+ L=.18u  
+ W=.18u         
M_U2_U13_U2_M4         U2_U13_N62128 U2_U13_X N115794 N115794 CMOSP  
+ L=.18u  
+ W=.2u         
M_U2_U13_U3_M5         U2_U13_X U2_U13_N62128 N115794 N115794 CMOSP  
+ L=.18u  
+ W=.2u         
M_U2_U13_U3_M6         U2_U13_X U2_U13_N62128 U2_U13_U3_N39991 0 CMOSN  
+ L=.18u  
+ W=.18u         
M_U2_U13_U3_M2         U2_U13_U3_N39991 N116065 0 0 CMOSN  
+ L=.18u  
+ W=.18u         
M_U2_U13_U3_M4         U2_U13_X N116065 N115794 N115794 CMOSP  
+ L=.18u  
+ W=.2u         
M_U2_U13_U4_M5         3SB U2_U13_X N115794 N115794 CMOSP  
+ L=.18u  
+ W=.2u         
M_U2_U13_U4_M6         3SB U2_U13_X U2_U13_U4_N39991 0 CMOSN  
+ L=.18u  
+ W=.18u         
M_U2_U13_U4_M2         U2_U13_U4_N39991 N124715 0 0 CMOSN  
+ L=.18u  
+ W=.18u         
M_U2_U13_U4_M4         3SB N124715 N115794 N115794 CMOSP  
+ L=.18u  
+ W=.2u         
M_U2_U13_U5_M5         N124715 3SB N115794 N115794 CMOSP  
+ L=.18u  
+ W=.2u         
M_U2_U13_U5_M6         N124715 3SB U2_U13_U5_N39991 0 CMOSN  
+ L=.18u  
+ W=.18u         
M_U2_U13_U5_M2         U2_U13_U5_N39991 U2_U13_Y 0 0 CMOSN  
+ L=.18u  
+ W=.18u         
M_U2_U13_U5_M4         N124715 U2_U13_Y N115794 N115794 CMOSP  
+ L=.18u  
+ W=.2u         
M_U2_C23_M4         U2_C23_N26867 U2_C23_N27085 N115794 N115794 CMOSP  
+ L=.2u  
+ W=.6u         
M_U2_C23_M5         U2_C23_N27165 N115811 0 0 CMOSN  
+ L=.2u  
+ W=.6u         
M_U2_C23_M6         Q23 U2_C23_N26867 N115794 N115794 CMOSP  
+ L=.2u  
+ W=.8u         
M_U2_C23_M7         Q23 N115811 0 0 CMOSN  
+ L=.2u  
+ W=.4u         
M_U2_C23_M1         U2_C23_N27085 N115961 U2_C23_N27165 0 CMOSN  
+ L=.2u  
+ W=.4u         
M_U2_C23_M2         U2_C23_N26867 N117530 U2_C23_N27165 0 CMOSN  
+ L=.2u  
+ W=.4u         
M_U2_C23_M3         U2_C23_N27085 U2_C23_N27085 N115794 N115794 CMOSP  
+ L=.2u  
+ W=.6u         
M_U2_C30_M4         U2_C30_N26867 U2_C30_N27085 N115794 N115794 CMOSP  
+ L=.2u  
+ W=.6u         
M_U2_C30_M5         U2_C30_N27165 N115811 0 0 CMOSN  
+ L=.2u  
+ W=.6u         
M_U2_C30_M6         Q30 U2_C30_N26867 N115794 N115794 CMOSP  
+ L=.2u  
+ W=.8u         
M_U2_C30_M7         Q30 N115811 0 0 CMOSN  
+ L=.2u  
+ W=.4u         
M_U2_C30_M1         U2_C30_N27085 N115961 U2_C30_N27165 0 CMOSN  
+ L=.2u  
+ W=.4u         
M_U2_C30_M2         U2_C30_N26867 N117544 U2_C30_N27165 0 CMOSN  
+ L=.2u  
+ W=.4u         
M_U2_C30_M3         U2_C30_N27085 U2_C30_N27085 N115794 N115794 CMOSP  
+ L=.2u  
+ W=.6u         
M_U2_C53_M4         U2_C53_N26867 U2_C53_N27085 N115794 N115794 CMOSP  
+ L=.2u  
+ W=.6u         
M_U2_C53_M5         U2_C53_N27165 N115811 0 0 CMOSN  
+ L=.2u  
+ W=.6u         
M_U2_C53_M6         Q53 U2_C53_N26867 N115794 N115794 CMOSP  
+ L=.2u  
+ W=.8u         
M_U2_C53_M7         Q53 N115811 0 0 CMOSN  
+ L=.2u  
+ W=.4u         
M_U2_C53_M1         U2_C53_N27085 N115961 U2_C53_N27165 0 CMOSN  
+ L=.2u  
+ W=.4u         
M_U2_C53_M2         U2_C53_N26867 N119901 U2_C53_N27165 0 CMOSN  
+ L=.2u  
+ W=.4u         
M_U2_C53_M3         U2_C53_N27085 U2_C53_N27085 N115794 N115794 CMOSP  
+ L=.2u  
+ W=.6u         
M_U2_C34_M4         U2_C34_N26867 U2_C34_N27085 N115794 N115794 CMOSP  
+ L=.2u  
+ W=.6u         
M_U2_C34_M5         U2_C34_N27165 N115811 0 0 CMOSN  
+ L=.2u  
+ W=.6u         
M_U2_C34_M6         Q34 U2_C34_N26867 N115794 N115794 CMOSP  
+ L=.2u  
+ W=.8u         
M_U2_C34_M7         Q34 N115811 0 0 CMOSN  
+ L=.2u  
+ W=.4u         
M_U2_C34_M1         U2_C34_N27085 N115961 U2_C34_N27165 0 CMOSN  
+ L=.2u  
+ W=.4u         
M_U2_C34_M2         U2_C34_N26867 N117516 U2_C34_N27165 0 CMOSN  
+ L=.2u  
+ W=.4u         
M_U2_C34_M3         U2_C34_N27085 U2_C34_N27085 N115794 N115794 CMOSP  
+ L=.2u  
+ W=.6u         
M_U2_C14_M4         U2_C14_N26867 U2_C14_N27085 N115794 N115794 CMOSP  
+ L=.2u  
+ W=.6u         
M_U2_C14_M5         U2_C14_N27165 N115811 0 0 CMOSN  
+ L=.2u  
+ W=.6u         
M_U2_C14_M6         Q14 U2_C14_N26867 N115794 N115794 CMOSP  
+ L=.2u  
+ W=.8u         
M_U2_C14_M7         Q14 N115811 0 0 CMOSN  
+ L=.2u  
+ W=.4u         
M_U2_C14_M1         U2_C14_N27085 N115961 U2_C14_N27165 0 CMOSN  
+ L=.2u  
+ W=.4u         
M_U2_C14_M2         U2_C14_N26867 N117556 U2_C14_N27165 0 CMOSN  
+ L=.2u  
+ W=.4u         
M_U2_C14_M3         U2_C14_N27085 U2_C14_N27085 N115794 N115794 CMOSP  
+ L=.2u  
+ W=.6u         
M_U2_C43_M4         U2_C43_N26867 U2_C43_N27085 N115794 N115794 CMOSP  
+ L=.2u  
+ W=.6u         
M_U2_C43_M5         U2_C43_N27165 N115811 0 0 CMOSN  
+ L=.2u  
+ W=.6u         
M_U2_C43_M6         Q43 U2_C43_N26867 N115794 N115794 CMOSP  
+ L=.2u  
+ W=.8u         
M_U2_C43_M7         Q43 N115811 0 0 CMOSN  
+ L=.2u  
+ W=.4u         
M_U2_C43_M1         U2_C43_N27085 N115961 U2_C43_N27165 0 CMOSN  
+ L=.2u  
+ W=.4u         
M_U2_C43_M2         U2_C43_N26867 N117488 U2_C43_N27165 0 CMOSN  
+ L=.2u  
+ W=.4u         
M_U2_C43_M3         U2_C43_N27085 U2_C43_N27085 N115794 N115794 CMOSP  
+ L=.2u  
+ W=.6u         
M_U2_C57_M4         U2_C57_N26867 U2_C57_N27085 N115794 N115794 CMOSP  
+ L=.2u  
+ W=.6u         
M_U2_C57_M5         U2_C57_N27165 N115811 0 0 CMOSN  
+ L=.2u  
+ W=.6u         
M_U2_C57_M6         Q57 U2_C57_N26867 N115794 N115794 CMOSP  
+ L=.2u  
+ W=.8u         
M_U2_C57_M7         Q57 N115811 0 0 CMOSN  
+ L=.2u  
+ W=.4u         
M_U2_C57_M1         U2_C57_N27085 N115961 U2_C57_N27165 0 CMOSN  
+ L=.2u  
+ W=.4u         
M_U2_C57_M2         U2_C57_N26867 N119893 U2_C57_N27165 0 CMOSN  
+ L=.2u  
+ W=.4u         
M_U2_C57_M3         U2_C57_N27085 U2_C57_N27085 N115794 N115794 CMOSP  
+ L=.2u  
+ W=.6u         
M_U2_C31_M4         U2_C31_N26867 U2_C31_N27085 N115794 N115794 CMOSP  
+ L=.2u  
+ W=.6u         
M_U2_C31_M5         U2_C31_N27165 N115811 0 0 CMOSN  
+ L=.2u  
+ W=.6u         
M_U2_C31_M6         Q31 U2_C31_N26867 N115794 N115794 CMOSP  
+ L=.2u  
+ W=.8u         
M_U2_C31_M7         Q31 N115811 0 0 CMOSN  
+ L=.2u  
+ W=.4u         
M_U2_C31_M1         U2_C31_N27085 N115961 U2_C31_N27165 0 CMOSN  
+ L=.2u  
+ W=.4u         
M_U2_C31_M2         U2_C31_N26867 N117522 U2_C31_N27165 0 CMOSN  
+ L=.2u  
+ W=.4u         
M_U2_C31_M3         U2_C31_N27085 U2_C31_N27085 N115794 N115794 CMOSP  
+ L=.2u  
+ W=.6u         
M_U2_C54_M4         U2_C54_N26867 U2_C54_N27085 N115794 N115794 CMOSP  
+ L=.2u  
+ W=.6u         
M_U2_C54_M5         U2_C54_N27165 N115811 0 0 CMOSN  
+ L=.2u  
+ W=.6u         
M_U2_C54_M6         Q54 U2_C54_N26867 N115794 N115794 CMOSP  
+ L=.2u  
+ W=.8u         
M_U2_C54_M7         Q54 N115811 0 0 CMOSN  
+ L=.2u  
+ W=.4u         
M_U2_C54_M1         U2_C54_N27085 N115961 U2_C54_N27165 0 CMOSN  
+ L=.2u  
+ W=.4u         
M_U2_C54_M2         U2_C54_N26867 N119899 U2_C54_N27165 0 CMOSN  
+ L=.2u  
+ W=.4u         
M_U2_C54_M3         U2_C54_N27085 U2_C54_N27085 N115794 N115794 CMOSP  
+ L=.2u  
+ W=.6u         
M_U2_C35_M4         U2_C35_N26867 U2_C35_N27085 N115794 N115794 CMOSP  
+ L=.2u  
+ W=.6u         
M_U2_C35_M5         U2_C35_N27165 N115811 0 0 CMOSN  
+ L=.2u  
+ W=.6u         
M_U2_C35_M6         Q35 U2_C35_N26867 N115794 N115794 CMOSP  
+ L=.2u  
+ W=.8u         
M_U2_C35_M7         Q35 N115811 0 0 CMOSN  
+ L=.2u  
+ W=.4u         
M_U2_C35_M1         U2_C35_N27085 N115961 U2_C35_N27165 0 CMOSN  
+ L=.2u  
+ W=.4u         
M_U2_C35_M2         U2_C35_N26867 N117514 U2_C35_N27165 0 CMOSN  
+ L=.2u  
+ W=.4u         
M_U2_C35_M3         U2_C35_N27085 U2_C35_N27085 N115794 N115794 CMOSP  
+ L=.2u  
+ W=.6u         
M_U2_C24_M4         U2_C24_N26867 U2_C24_N27085 N115794 N115794 CMOSP  
+ L=.2u  
+ W=.6u         
M_U2_C24_M5         U2_C24_N27165 N115811 0 0 CMOSN  
+ L=.2u  
+ W=.6u         
M_U2_C24_M6         Q24 U2_C24_N26867 N115794 N115794 CMOSP  
+ L=.2u  
+ W=.8u         
M_U2_C24_M7         Q24 N115811 0 0 CMOSN  
+ L=.2u  
+ W=.4u         
M_U2_C24_M1         U2_C24_N27085 N115961 U2_C24_N27165 0 CMOSN  
+ L=.2u  
+ W=.4u         
M_U2_C24_M2         U2_C24_N26867 N117532 U2_C24_N27165 0 CMOSN  
+ L=.2u  
+ W=.4u         
M_U2_C24_M3         U2_C24_N27085 U2_C24_N27085 N115794 N115794 CMOSP  
+ L=.2u  
+ W=.6u         
M_U2_C1_M4         U2_C1_N26867 U2_C1_N27085 N115794 N115794 CMOSP  
+ L=.2u  
+ W=.6u         
M_U2_C1_M5         U2_C1_N27165 N115811 0 0 CMOSN  
+ L=.2u  
+ W=.6u         
M_U2_C1_M6         Q1 U2_C1_N26867 N115794 N115794 CMOSP  
+ L=.2u  
+ W=.8u         
M_U2_C1_M7         Q1 N115811 0 0 CMOSN  
+ L=.2u  
+ W=.4u         
M_U2_C1_M1         U2_C1_N27085 N115961 U2_C1_N27165 0 CMOSN  
+ L=.2u  
+ W=.4u         
M_U2_C1_M2         U2_C1_N26867 N117582 U2_C1_N27165 0 CMOSN  
+ L=.2u  
+ W=.4u         
M_U2_C1_M3         U2_C1_N27085 U2_C1_N27085 N115794 N115794 CMOSP  
+ L=.2u  
+ W=.6u         
M_U2_C15_M4         U2_C15_N26867 U2_C15_N27085 N115794 N115794 CMOSP  
+ L=.2u  
+ W=.6u         
M_U2_C15_M5         U2_C15_N27165 N115811 0 0 CMOSN  
+ L=.2u  
+ W=.6u         
M_U2_C15_M6         Q15 U2_C15_N26867 N115794 N115794 CMOSP  
+ L=.2u  
+ W=.8u         
M_U2_C15_M7         Q15 N115811 0 0 CMOSN  
+ L=.2u  
+ W=.4u         
M_U2_C15_M1         U2_C15_N27085 N115961 U2_C15_N27165 0 CMOSN  
+ L=.2u  
+ W=.4u         
M_U2_C15_M2         U2_C15_N26867 N117554 U2_C15_N27165 0 CMOSN  
+ L=.2u  
+ W=.4u         
M_U2_C15_M3         U2_C15_N27085 U2_C15_N27085 N115794 N115794 CMOSP  
+ L=.2u  
+ W=.6u         
M_U2_C44_M4         U2_C44_N26867 U2_C44_N27085 N115794 N115794 CMOSP  
+ L=.2u  
+ W=.6u         
M_U2_C44_M5         U2_C44_N27165 N115811 0 0 CMOSN  
+ L=.2u  
+ W=.6u         
M_U2_C44_M6         Q44 U2_C44_N26867 N115794 N115794 CMOSP  
+ L=.2u  
+ W=.8u         
M_U2_C44_M7         Q44 N115811 0 0 CMOSN  
+ L=.2u  
+ W=.4u         
M_U2_C44_M1         U2_C44_N27085 N115961 U2_C44_N27165 0 CMOSN  
+ L=.2u  
+ W=.4u         
M_U2_C44_M2         U2_C44_N26867 N117490 U2_C44_N27165 0 CMOSN  
+ L=.2u  
+ W=.4u         
M_U2_C44_M3         U2_C44_N27085 U2_C44_N27085 N115794 N115794 CMOSP  
+ L=.2u  
+ W=.6u         
M_U2_C58_M4         U2_C58_N26867 U2_C58_N27085 N115794 N115794 CMOSP  
+ L=.2u  
+ W=.6u         
M_U2_C58_M5         U2_C58_N27165 N115811 0 0 CMOSN  
+ L=.2u  
+ W=.6u         
M_U2_C58_M6         Q58 U2_C58_N26867 N115794 N115794 CMOSP  
+ L=.2u  
+ W=.8u         
M_U2_C58_M7         Q58 N115811 0 0 CMOSN  
+ L=.2u  
+ W=.4u         
M_U2_C58_M1         U2_C58_N27085 N115961 U2_C58_N27165 0 CMOSN  
+ L=.2u  
+ W=.4u         
M_U2_C58_M2         U2_C58_N26867 N119891 U2_C58_N27165 0 CMOSN  
+ L=.2u  
+ W=.4u         
M_U2_C58_M3         U2_C58_N27085 U2_C58_N27085 N115794 N115794 CMOSP  
+ L=.2u  
+ W=.6u         
M_U2_C32_M4         U2_C32_N26867 U2_C32_N27085 N115794 N115794 CMOSP  
+ L=.2u  
+ W=.6u         
M_U2_C32_M5         U2_C32_N27165 N115811 0 0 CMOSN  
+ L=.2u  
+ W=.6u         
M_U2_C32_M6         U2_N537478 U2_C32_N26867 N115794 N115794 CMOSP  
+ L=.2u  
+ W=.8u         
M_U2_C32_M7         U2_N537478 N115811 0 0 CMOSN  
+ L=.2u  
+ W=.4u         
M_U2_C32_M1         U2_C32_N27085 N115961 U2_C32_N27165 0 CMOSN  
+ L=.2u  
+ W=.4u         
M_U2_C32_M2         U2_C32_N26867 N117520 U2_C32_N27165 0 CMOSN  
+ L=.2u  
+ W=.4u         
M_U2_C32_M3         U2_C32_N27085 U2_C32_N27085 N115794 N115794 CMOSP  
+ L=.2u  
+ W=.6u         
M_U2_C55_M4         U2_C55_N26867 U2_C55_N27085 N115794 N115794 CMOSP  
+ L=.2u  
+ W=.6u         
M_U2_C55_M5         U2_C55_N27165 N115811 0 0 CMOSN  
+ L=.2u  
+ W=.6u         
M_U2_C55_M6         Q55 U2_C55_N26867 N115794 N115794 CMOSP  
+ L=.2u  
+ W=.8u         
M_U2_C55_M7         Q55 N115811 0 0 CMOSN  
+ L=.2u  
+ W=.4u         
M_U2_C55_M1         U2_C55_N27085 N115961 U2_C55_N27165 0 CMOSN  
+ L=.2u  
+ W=.4u         
M_U2_C55_M2         U2_C55_N26867 N119897 U2_C55_N27165 0 CMOSN  
+ L=.2u  
+ W=.4u         
M_U2_C55_M3         U2_C55_N27085 U2_C55_N27085 N115794 N115794 CMOSP  
+ L=.2u  
+ W=.6u         
M_U2_C36_M4         U2_C36_N26867 U2_C36_N27085 N115794 N115794 CMOSP  
+ L=.2u  
+ W=.6u         
M_U2_C36_M5         U2_C36_N27165 N115811 0 0 CMOSN  
+ L=.2u  
+ W=.6u         
M_U2_C36_M6         Q36 U2_C36_N26867 N115794 N115794 CMOSP  
+ L=.2u  
+ W=.8u         
M_U2_C36_M7         Q36 N115811 0 0 CMOSN  
+ L=.2u  
+ W=.4u         
M_U2_C36_M1         U2_C36_N27085 N115961 U2_C36_N27165 0 CMOSN  
+ L=.2u  
+ W=.4u         
M_U2_C36_M2         U2_C36_N26867 N117512 U2_C36_N27165 0 CMOSN  
+ L=.2u  
+ W=.4u         
M_U2_C36_M3         U2_C36_N27085 U2_C36_N27085 N115794 N115794 CMOSP  
+ L=.2u  
+ W=.6u         
M_U2_C16_M4         U2_C16_N26867 U2_C16_N27085 N115794 N115794 CMOSP  
+ L=.2u  
+ W=.6u         
M_U2_C16_M5         U2_C16_N27165 N115811 0 0 CMOSN  
+ L=.2u  
+ W=.6u         
M_U2_C16_M6         Q16 U2_C16_N26867 N115794 N115794 CMOSP  
+ L=.2u  
+ W=.8u         
M_U2_C16_M7         Q16 N115811 0 0 CMOSN  
+ L=.2u  
+ W=.4u         
M_U2_C16_M1         U2_C16_N27085 N115961 U2_C16_N27165 0 CMOSN  
+ L=.2u  
+ W=.4u         
M_U2_C16_M2         U2_C16_N26867 N117552 U2_C16_N27165 0 CMOSN  
+ L=.2u  
+ W=.4u         
M_U2_C16_M3         U2_C16_N27085 U2_C16_N27085 N115794 N115794 CMOSP  
+ L=.2u  
+ W=.6u         
M_U2_C45_M4         U2_C45_N26867 U2_C45_N27085 N115794 N115794 CMOSP  
+ L=.2u  
+ W=.6u         
M_U2_C45_M5         U2_C45_N27165 N115811 0 0 CMOSN  
+ L=.2u  
+ W=.6u         
M_U2_C45_M6         Q45 U2_C45_N26867 N115794 N115794 CMOSP  
+ L=.2u  
+ W=.8u         
M_U2_C45_M7         Q45 N115811 0 0 CMOSN  
+ L=.2u  
+ W=.4u         
M_U2_C45_M1         U2_C45_N27085 N115961 U2_C45_N27165 0 CMOSN  
+ L=.2u  
+ W=.4u         
M_U2_C45_M2         U2_C45_N26867 N117492 U2_C45_N27165 0 CMOSN  
+ L=.2u  
+ W=.4u         
M_U2_C45_M3         U2_C45_N27085 U2_C45_N27085 N115794 N115794 CMOSP  
+ L=.2u  
+ W=.6u         
M_U2_C59_M4         U2_C59_N26867 U2_C59_N27085 N115794 N115794 CMOSP  
+ L=.2u  
+ W=.6u         
M_U2_C59_M5         U2_C59_N27165 N115811 0 0 CMOSN  
+ L=.2u  
+ W=.6u         
M_U2_C59_M6         Q59 U2_C59_N26867 N115794 N115794 CMOSP  
+ L=.2u  
+ W=.8u         
M_U2_C59_M7         Q59 N115811 0 0 CMOSN  
+ L=.2u  
+ W=.4u         
M_U2_C59_M1         U2_C59_N27085 N115961 U2_C59_N27165 0 CMOSN  
+ L=.2u  
+ W=.4u         
M_U2_C59_M2         U2_C59_N26867 N119889 U2_C59_N27165 0 CMOSN  
+ L=.2u  
+ W=.4u         
M_U2_C59_M3         U2_C59_N27085 U2_C59_N27085 N115794 N115794 CMOSP  
+ L=.2u  
+ W=.6u         
M_U2_U12_U6_M5         U2_U12_N62152 U2_U12_Y N115794 N115794 CMOSP  
+ L=.18u  
+ W=.2u         
M_U2_U12_U6_M6         U2_U12_N62152 U2_U12_Y U2_U12_U6_N39991 0 CMOSN  
+ L=.18u  
+ W=.18u         
M_U2_U12_U6_M2         U2_U12_U6_N39991 U2_N538950 0 0 CMOSN  
+ L=.18u  
+ W=.18u         
M_U2_U12_U6_M4         U2_U12_N62152 U2_N538950 N115794 N115794 CMOSP  
+ L=.18u  
+ W=.2u         
M_U2_U12_U1_M2         U2_U12_U1_N27355 N116065 U2_U12_U1_N27381
+  U2_U12_U1_N27381 CMOSN  
+ L=.18u  
+ W=.18u         
M_U2_U12_U1_M3         U2_U12_Y U2_U12_X N115794 N115794 CMOSP  
+ L=.18u  
+ W=.2u         
M_U2_U12_U1_M6         U2_U12_U1_N27381 U2_U12_N62152 0 0 CMOSN  
+ L=.18u  
+ W=.18u         
M_U2_U12_U1_M4         U2_U12_Y N116065 N115794 N115794 CMOSP  
+ L=.18u  
+ W=.2u         
M_U2_U12_U1_M1         U2_U12_Y U2_U12_X U2_U12_U1_N27355 U2_U12_U1_N27355
+  CMOSN  
+ L=.18u  
+ W=.18u         
M_U2_U12_U1_M5         U2_U12_Y U2_U12_N62152 N115794 N115794 CMOSP  
+ L=.18u  
+ W=.2u         
M_U2_U12_U2_M5         U2_U12_N62128 U2_U12_N62152 N115794 N115794 CMOSP  
+ L=.18u  
+ W=.2u         
M_U2_U12_U2_M6         U2_U12_N62128 U2_U12_N62152 U2_U12_U2_N39991 0 CMOSN  
+ L=.18u  
+ W=.18u         
M_U2_U12_U2_M2         U2_U12_U2_N39991 U2_U12_X 0 0 CMOSN  
+ L=.18u  
+ W=.18u         
M_U2_U12_U2_M4         U2_U12_N62128 U2_U12_X N115794 N115794 CMOSP  
+ L=.18u  
+ W=.2u         
M_U2_U12_U3_M5         U2_U12_X U2_U12_N62128 N115794 N115794 CMOSP  
+ L=.18u  
+ W=.2u         
M_U2_U12_U3_M6         U2_U12_X U2_U12_N62128 U2_U12_U3_N39991 0 CMOSN  
+ L=.18u  
+ W=.18u         
M_U2_U12_U3_M2         U2_U12_U3_N39991 N116065 0 0 CMOSN  
+ L=.18u  
+ W=.18u         
M_U2_U12_U3_M4         U2_U12_X N116065 N115794 N115794 CMOSP  
+ L=.18u  
+ W=.2u         
M_U2_U12_U4_M5         4SB U2_U12_X N115794 N115794 CMOSP  
+ L=.18u  
+ W=.2u         
M_U2_U12_U4_M6         4SB U2_U12_X U2_U12_U4_N39991 0 CMOSN  
+ L=.18u  
+ W=.18u         
M_U2_U12_U4_M2         U2_U12_U4_N39991 N124916 0 0 CMOSN  
+ L=.18u  
+ W=.18u         
M_U2_U12_U4_M4         4SB N124916 N115794 N115794 CMOSP  
+ L=.18u  
+ W=.2u         
M_U2_U12_U5_M5         N124916 4SB N115794 N115794 CMOSP  
+ L=.18u  
+ W=.2u         
M_U2_U12_U5_M6         N124916 4SB U2_U12_U5_N39991 0 CMOSN  
+ L=.18u  
+ W=.18u         
M_U2_U12_U5_M2         U2_U12_U5_N39991 U2_U12_Y 0 0 CMOSN  
+ L=.18u  
+ W=.18u         
M_U2_U12_U5_M4         N124916 U2_U12_Y N115794 N115794 CMOSP  
+ L=.18u  
+ W=.2u         
M_U2_C37_M4         U2_C37_N26867 U2_C37_N27085 N115794 N115794 CMOSP  
+ L=.2u  
+ W=.6u         
M_U2_C37_M5         U2_C37_N27165 N115811 0 0 CMOSN  
+ L=.2u  
+ W=.6u         
M_U2_C37_M6         Q37 U2_C37_N26867 N115794 N115794 CMOSP  
+ L=.2u  
+ W=.8u         
M_U2_C37_M7         Q37 N115811 0 0 CMOSN  
+ L=.2u  
+ W=.4u         
M_U2_C37_M1         U2_C37_N27085 N115961 U2_C37_N27165 0 CMOSN  
+ L=.2u  
+ W=.4u         
M_U2_C37_M2         U2_C37_N26867 N117510 U2_C37_N27165 0 CMOSN  
+ L=.2u  
+ W=.4u         
M_U2_C37_M3         U2_C37_N27085 U2_C37_N27085 N115794 N115794 CMOSP  
+ L=.2u  
+ W=.6u         
M_U2_C2_M4         U2_C2_N26867 U2_C2_N27085 N115794 N115794 CMOSP  
+ L=.2u  
+ W=.6u         
M_U2_C2_M5         U2_C2_N27165 N115811 0 0 CMOSN  
+ L=.2u  
+ W=.6u         
M_U2_C2_M6         Q2 U2_C2_N26867 N115794 N115794 CMOSP  
+ L=.2u  
+ W=.8u         
M_U2_C2_M7         Q2 N115811 0 0 CMOSN  
+ L=.2u  
+ W=.4u         
M_U2_C2_M1         U2_C2_N27085 N115961 U2_C2_N27165 0 CMOSN  
+ L=.2u  
+ W=.4u         
M_U2_C2_M2         U2_C2_N26867 N117564 U2_C2_N27165 0 CMOSN  
+ L=.2u  
+ W=.4u         
M_U2_C2_M3         U2_C2_N27085 U2_C2_N27085 N115794 N115794 CMOSP  
+ L=.2u  
+ W=.6u         
M_U2_C56_M4         U2_C56_N26867 U2_C56_N27085 N115794 N115794 CMOSP  
+ L=.2u  
+ W=.6u         
M_U2_C56_M5         U2_C56_N27165 N115811 0 0 CMOSN  
+ L=.2u  
+ W=.6u         
M_U2_C56_M6         Q56 U2_C56_N26867 N115794 N115794 CMOSP  
+ L=.2u  
+ W=.8u         
M_U2_C56_M7         Q56 N115811 0 0 CMOSN  
+ L=.2u  
+ W=.4u         
M_U2_C56_M1         U2_C56_N27085 N115961 U2_C56_N27165 0 CMOSN  
+ L=.2u  
+ W=.4u         
M_U2_C56_M2         U2_C56_N26867 N119895 U2_C56_N27165 0 CMOSN  
+ L=.2u  
+ W=.4u         
M_U2_C56_M3         U2_C56_N27085 U2_C56_N27085 N115794 N115794 CMOSP  
+ L=.2u  
+ W=.6u         
M_U2_U15_U6_M5         U2_U15_N62152 U2_U15_Y N115794 N115794 CMOSP  
+ L=.18u  
+ W=.2u         
M_U2_U15_U6_M6         U2_U15_N62152 U2_U15_Y U2_U15_U6_N39991 0 CMOSN  
+ L=.18u  
+ W=.18u         
M_U2_U15_U6_M2         U2_U15_U6_N39991 U2_N539698 0 0 CMOSN  
+ L=.18u  
+ W=.18u         
M_U2_U15_U6_M4         U2_U15_N62152 U2_N539698 N115794 N115794 CMOSP  
+ L=.18u  
+ W=.2u         
M_U2_U15_U1_M2         U2_U15_U1_N27355 N116065 U2_U15_U1_N27381
+  U2_U15_U1_N27381 CMOSN  
+ L=.18u  
+ W=.18u         
M_U2_U15_U1_M3         U2_U15_Y U2_U15_X N115794 N115794 CMOSP  
+ L=.18u  
+ W=.2u         
M_U2_U15_U1_M6         U2_U15_U1_N27381 U2_U15_N62152 0 0 CMOSN  
+ L=.18u  
+ W=.18u         
M_U2_U15_U1_M4         U2_U15_Y N116065 N115794 N115794 CMOSP  
+ L=.18u  
+ W=.2u         
M_U2_U15_U1_M1         U2_U15_Y U2_U15_X U2_U15_U1_N27355 U2_U15_U1_N27355
+  CMOSN  
+ L=.18u  
+ W=.18u         
M_U2_U15_U1_M5         U2_U15_Y U2_U15_N62152 N115794 N115794 CMOSP  
+ L=.18u  
+ W=.2u         
M_U2_U15_U2_M5         U2_U15_N62128 U2_U15_N62152 N115794 N115794 CMOSP  
+ L=.18u  
+ W=.2u         
M_U2_U15_U2_M6         U2_U15_N62128 U2_U15_N62152 U2_U15_U2_N39991 0 CMOSN  
+ L=.18u  
+ W=.18u         
M_U2_U15_U2_M2         U2_U15_U2_N39991 U2_U15_X 0 0 CMOSN  
+ L=.18u  
+ W=.18u         
M_U2_U15_U2_M4         U2_U15_N62128 U2_U15_X N115794 N115794 CMOSP  
+ L=.18u  
+ W=.2u         
M_U2_U15_U3_M5         U2_U15_X U2_U15_N62128 N115794 N115794 CMOSP  
+ L=.18u  
+ W=.2u         
M_U2_U15_U3_M6         U2_U15_X U2_U15_N62128 U2_U15_U3_N39991 0 CMOSN  
+ L=.18u  
+ W=.18u         
M_U2_U15_U3_M2         U2_U15_U3_N39991 N116065 0 0 CMOSN  
+ L=.18u  
+ W=.18u         
M_U2_U15_U3_M4         U2_U15_X N116065 N115794 N115794 CMOSP  
+ L=.18u  
+ W=.2u         
M_U2_U15_U4_M5         LSB U2_U15_X N115794 N115794 CMOSP  
+ L=.18u  
+ W=.2u         
M_U2_U15_U4_M6         LSB U2_U15_X U2_U15_U4_N39991 0 CMOSN  
+ L=.18u  
+ W=.18u         
M_U2_U15_U4_M2         U2_U15_U4_N39991 N124319 0 0 CMOSN  
+ L=.18u  
+ W=.18u         
M_U2_U15_U4_M4         LSB N124319 N115794 N115794 CMOSP  
+ L=.18u  
+ W=.2u         
M_U2_U15_U5_M5         N124319 LSB N115794 N115794 CMOSP  
+ L=.18u  
+ W=.2u         
M_U2_U15_U5_M6         N124319 LSB U2_U15_U5_N39991 0 CMOSN  
+ L=.18u  
+ W=.18u         
M_U2_U15_U5_M2         U2_U15_U5_N39991 U2_U15_Y 0 0 CMOSN  
+ L=.18u  
+ W=.18u         
M_U2_U15_U5_M4         N124319 U2_U15_Y N115794 N115794 CMOSP  
+ L=.18u  
+ W=.2u         
M_U2_C46_M4         U2_C46_N26867 U2_C46_N27085 N115794 N115794 CMOSP  
+ L=.2u  
+ W=.6u         
M_U2_C46_M5         U2_C46_N27165 N115811 0 0 CMOSN  
+ L=.2u  
+ W=.6u         
M_U2_C46_M6         Q46 U2_C46_N26867 N115794 N115794 CMOSP  
+ L=.2u  
+ W=.8u         
M_U2_C46_M7         Q46 N115811 0 0 CMOSN  
+ L=.2u  
+ W=.4u         
M_U2_C46_M1         U2_C46_N27085 N115961 U2_C46_N27165 0 CMOSN  
+ L=.2u  
+ W=.4u         
M_U2_C46_M2         U2_C46_N26867 N117494 U2_C46_N27165 0 CMOSN  
+ L=.2u  
+ W=.4u         
M_U2_C46_M3         U2_C46_N27085 U2_C46_N27085 N115794 N115794 CMOSP  
+ L=.2u  
+ W=.6u         
M_U2_C60_M4         U2_C60_N26867 U2_C60_N27085 N115794 N115794 CMOSP  
+ L=.2u  
+ W=.6u         
M_U2_C60_M5         U2_C60_N27165 N115811 0 0 CMOSN  
+ L=.2u  
+ W=.6u         
M_U2_C60_M6         Q60 U2_C60_N26867 N115794 N115794 CMOSP  
+ L=.2u  
+ W=.8u         
M_U2_C60_M7         Q60 N115811 0 0 CMOSN  
+ L=.2u  
+ W=.4u         
M_U2_C60_M1         U2_C60_N27085 N115961 U2_C60_N27165 0 CMOSN  
+ L=.2u  
+ W=.4u         
M_U2_C60_M2         U2_C60_N26867 N119887 U2_C60_N27165 0 CMOSN  
+ L=.2u  
+ W=.4u         
M_U2_C60_M3         U2_C60_N27085 U2_C60_N27085 N115794 N115794 CMOSP  
+ L=.2u  
+ W=.6u         
M_U2_C17_M4         U2_C17_N26867 U2_C17_N27085 N115794 N115794 CMOSP  
+ L=.2u  
+ W=.6u         
M_U2_C17_M5         U2_C17_N27165 N115811 0 0 CMOSN  
+ L=.2u  
+ W=.6u         
M_U2_C17_M6         Q17 U2_C17_N26867 N115794 N115794 CMOSP  
+ L=.2u  
+ W=.8u         
M_U2_C17_M7         Q17 N115811 0 0 CMOSN  
+ L=.2u  
+ W=.4u         
M_U2_C17_M1         U2_C17_N27085 N115961 U2_C17_N27165 0 CMOSN  
+ L=.2u  
+ W=.4u         
M_U2_C17_M2         U2_C17_N26867 N117550 U2_C17_N27165 0 CMOSN  
+ L=.2u  
+ W=.4u         
M_U2_C17_M3         U2_C17_N27085 U2_C17_N27085 N115794 N115794 CMOSP  
+ L=.2u  
+ W=.6u         
M_U2_C3_M4         U2_C3_N26867 U2_C3_N27085 N115794 N115794 CMOSP  
+ L=.2u  
+ W=.6u         
M_U2_C3_M5         U2_C3_N27165 N115811 0 0 CMOSN  
+ L=.2u  
+ W=.6u         
M_U2_C3_M6         Q3 U2_C3_N26867 N115794 N115794 CMOSP  
+ L=.2u  
+ W=.8u         
M_U2_C3_M7         Q3 N115811 0 0 CMOSN  
+ L=.2u  
+ W=.4u         
M_U2_C3_M1         U2_C3_N27085 N115961 U2_C3_N27165 0 CMOSN  
+ L=.2u  
+ W=.4u         
M_U2_C3_M2         U2_C3_N26867 N117568 U2_C3_N27165 0 CMOSN  
+ L=.2u  
+ W=.4u         
M_U2_C3_M3         U2_C3_N27085 U2_C3_N27085 N115794 N115794 CMOSP  
+ L=.2u  
+ W=.6u         
M_U2_C38_M4         U2_C38_N26867 U2_C38_N27085 N115794 N115794 CMOSP  
+ L=.2u  
+ W=.6u         
M_U2_C38_M5         U2_C38_N27165 N115811 0 0 CMOSN  
+ L=.2u  
+ W=.6u         
M_U2_C38_M6         Q38 U2_C38_N26867 N115794 N115794 CMOSP  
+ L=.2u  
+ W=.8u         
M_U2_C38_M7         Q38 N115811 0 0 CMOSN  
+ L=.2u  
+ W=.4u         
M_U2_C38_M1         U2_C38_N27085 N115961 U2_C38_N27165 0 CMOSN  
+ L=.2u  
+ W=.4u         
M_U2_C38_M2         U2_C38_N26867 N117508 U2_C38_N27165 0 CMOSN  
+ L=.2u  
+ W=.4u         
M_U2_C38_M3         U2_C38_N27085 U2_C38_N27085 N115794 N115794 CMOSP  
+ L=.2u  
+ W=.6u         
M_U2_C47_M4         U2_C47_N26867 U2_C47_N27085 N115794 N115794 CMOSP  
+ L=.2u  
+ W=.6u         
M_U2_C47_M5         U2_C47_N27165 N115811 0 0 CMOSN  
+ L=.2u  
+ W=.6u         
M_U2_C47_M6         Q47 U2_C47_N26867 N115794 N115794 CMOSP  
+ L=.2u  
+ W=.8u         
M_U2_C47_M7         Q47 N115811 0 0 CMOSN  
+ L=.2u  
+ W=.4u         
M_U2_C47_M1         U2_C47_N27085 N115961 U2_C47_N27165 0 CMOSN  
+ L=.2u  
+ W=.4u         
M_U2_C47_M2         U2_C47_N26867 N117496 U2_C47_N27165 0 CMOSN  
+ L=.2u  
+ W=.4u         
M_U2_C47_M3         U2_C47_N27085 U2_C47_N27085 N115794 N115794 CMOSP  
+ L=.2u  
+ W=.6u         
M_U2_C4_M4         U2_C4_N26867 U2_C4_N27085 N115794 N115794 CMOSP  
+ L=.2u  
+ W=.6u         
M_U2_C4_M5         U2_C4_N27165 N115811 0 0 CMOSN  
+ L=.2u  
+ W=.6u         
M_U2_C4_M6         Q4 U2_C4_N26867 N115794 N115794 CMOSP  
+ L=.2u  
+ W=.8u         
M_U2_C4_M7         Q4 N115811 0 0 CMOSN  
+ L=.2u  
+ W=.4u         
M_U2_C4_M1         U2_C4_N27085 N115961 U2_C4_N27165 0 CMOSN  
+ L=.2u  
+ W=.4u         
M_U2_C4_M2         U2_C4_N26867 N117566 U2_C4_N27165 0 CMOSN  
+ L=.2u  
+ W=.4u         
M_U2_C4_M3         U2_C4_N27085 U2_C4_N27085 N115794 N115794 CMOSP  
+ L=.2u  
+ W=.6u         
M_U2_C61_M4         U2_C61_N26867 U2_C61_N27085 N115794 N115794 CMOSP  
+ L=.2u  
+ W=.6u         
M_U2_C61_M5         U2_C61_N27165 N115811 0 0 CMOSN  
+ L=.2u  
+ W=.6u         
M_U2_C61_M6         Q61 U2_C61_N26867 N115794 N115794 CMOSP  
+ L=.2u  
+ W=.8u         
M_U2_C61_M7         Q61 N115811 0 0 CMOSN  
+ L=.2u  
+ W=.4u         
M_U2_C61_M1         U2_C61_N27085 N115961 U2_C61_N27165 0 CMOSN  
+ L=.2u  
+ W=.4u         
M_U2_C61_M2         U2_C61_N26867 N119885 U2_C61_N27165 0 CMOSN  
+ L=.2u  
+ W=.4u         
M_U2_C61_M3         U2_C61_N27085 U2_C61_N27085 N115794 N115794 CMOSP  
+ L=.2u  
+ W=.6u         
M_U2_C18_M4         U2_C18_N26867 U2_C18_N27085 N115794 N115794 CMOSP  
+ L=.2u  
+ W=.6u         
M_U2_C18_M5         U2_C18_N27165 N115811 0 0 CMOSN  
+ L=.2u  
+ W=.6u         
M_U2_C18_M6         Q18 U2_C18_N26867 N115794 N115794 CMOSP  
+ L=.2u  
+ W=.8u         
M_U2_C18_M7         Q18 N115811 0 0 CMOSN  
+ L=.2u  
+ W=.4u         
M_U2_C18_M1         U2_C18_N27085 N115961 U2_C18_N27165 0 CMOSN  
+ L=.2u  
+ W=.4u         
M_U2_C18_M2         U2_C18_N26867 N117548 U2_C18_N27165 0 CMOSN  
+ L=.2u  
+ W=.4u         
M_U2_C18_M3         U2_C18_N27085 U2_C18_N27085 N115794 N115794 CMOSP  
+ L=.2u  
+ W=.6u         
M_U2_C25_M4         U2_C25_N26867 U2_C25_N27085 N115794 N115794 CMOSP  
+ L=.2u  
+ W=.6u         
M_U2_C25_M5         U2_C25_N27165 N115811 0 0 CMOSN  
+ L=.2u  
+ W=.6u         
M_U2_C25_M6         Q25 U2_C25_N26867 N115794 N115794 CMOSP  
+ L=.2u  
+ W=.8u         
M_U2_C25_M7         Q25 N115811 0 0 CMOSN  
+ L=.2u  
+ W=.4u         
M_U2_C25_M1         U2_C25_N27085 N115961 U2_C25_N27165 0 CMOSN  
+ L=.2u  
+ W=.4u         
M_U2_C25_M2         U2_C25_N26867 N117534 U2_C25_N27165 0 CMOSN  
+ L=.2u  
+ W=.4u         
M_U2_C25_M3         U2_C25_N27085 U2_C25_N27085 N115794 N115794 CMOSP  
+ L=.2u  
+ W=.6u         
M_U2_C39_M4         U2_C39_N26867 U2_C39_N27085 N115794 N115794 CMOSP  
+ L=.2u  
+ W=.6u         
M_U2_C39_M5         U2_C39_N27165 N115811 0 0 CMOSN  
+ L=.2u  
+ W=.6u         
M_U2_C39_M6         Q39 U2_C39_N26867 N115794 N115794 CMOSP  
+ L=.2u  
+ W=.8u         
M_U2_C39_M7         Q39 N115811 0 0 CMOSN  
+ L=.2u  
+ W=.4u         
M_U2_C39_M1         U2_C39_N27085 N115961 U2_C39_N27165 0 CMOSN  
+ L=.2u  
+ W=.4u         
M_U2_C39_M2         U2_C39_N26867 N117506 U2_C39_N27165 0 CMOSN  
+ L=.2u  
+ W=.4u         
M_U2_C39_M3         U2_C39_N27085 U2_C39_N27085 N115794 N115794 CMOSP  
+ L=.2u  
+ W=.6u         
M_U2_C9_M4         U2_C9_N26867 U2_C9_N27085 N115794 N115794 CMOSP  
+ L=.2u  
+ W=.6u         
M_U2_C9_M5         U2_C9_N27165 N115811 0 0 CMOSN  
+ L=.2u  
+ W=.6u         
M_U2_C9_M6         Q9 U2_C9_N26867 N115794 N115794 CMOSP  
+ L=.2u  
+ W=.8u         
M_U2_C9_M7         Q9 N115811 0 0 CMOSN  
+ L=.2u  
+ W=.4u         
M_U2_C9_M1         U2_C9_N27085 N115961 U2_C9_N27165 0 CMOSN  
+ L=.2u  
+ W=.4u         
M_U2_C9_M2         U2_C9_N26867 N117578 U2_C9_N27165 0 CMOSN  
+ L=.2u  
+ W=.4u         
M_U2_C9_M3         U2_C9_N27085 U2_C9_N27085 N115794 N115794 CMOSP  
+ L=.2u  
+ W=.6u         
M_U2_C5_M4         U2_C5_N26867 U2_C5_N27085 N115794 N115794 CMOSP  
+ L=.2u  
+ W=.6u         
M_U2_C5_M5         U2_C5_N27165 N115811 0 0 CMOSN  
+ L=.2u  
+ W=.6u         
M_U2_C5_M6         Q5 U2_C5_N26867 N115794 N115794 CMOSP  
+ L=.2u  
+ W=.8u         
M_U2_C5_M7         Q5 N115811 0 0 CMOSN  
+ L=.2u  
+ W=.4u         
M_U2_C5_M1         U2_C5_N27085 N115961 U2_C5_N27165 0 CMOSN  
+ L=.2u  
+ W=.4u         
M_U2_C5_M2         U2_C5_N26867 N117574 U2_C5_N27165 0 CMOSN  
+ L=.2u  
+ W=.4u         
M_U2_C5_M3         U2_C5_N27085 U2_C5_N27085 N115794 N115794 CMOSP  
+ L=.2u  
+ W=.6u         
M_U2_C62_M4         U2_C62_N26867 U2_C62_N27085 N115794 N115794 CMOSP  
+ L=.2u  
+ W=.6u         
M_U2_C62_M5         U2_C62_N27165 N115811 0 0 CMOSN  
+ L=.2u  
+ W=.6u         
M_U2_C62_M6         Q62 U2_C62_N26867 N115794 N115794 CMOSP  
+ L=.2u  
+ W=.8u         
M_U2_C62_M7         Q62 N115811 0 0 CMOSN  
+ L=.2u  
+ W=.4u         
M_U2_C62_M1         U2_C62_N27085 N115961 U2_C62_N27165 0 CMOSN  
+ L=.2u  
+ W=.4u         
M_U2_C62_M2         U2_C62_N26867 N119883 U2_C62_N27165 0 CMOSN  
+ L=.2u  
+ W=.4u         
M_U2_C62_M3         U2_C62_N27085 U2_C62_N27085 N115794 N115794 CMOSP  
+ L=.2u  
+ W=.6u         
M_U2_C19_M4         U2_C19_N26867 U2_C19_N27085 N115794 N115794 CMOSP  
+ L=.2u  
+ W=.6u         
M_U2_C19_M5         U2_C19_N27165 N115811 0 0 CMOSN  
+ L=.2u  
+ W=.6u         
M_U2_C19_M6         Q19 U2_C19_N26867 N115794 N115794 CMOSP  
+ L=.2u  
+ W=.8u         
M_U2_C19_M7         Q19 N115811 0 0 CMOSN  
+ L=.2u  
+ W=.4u         
M_U2_C19_M1         U2_C19_N27085 N115961 U2_C19_N27165 0 CMOSN  
+ L=.2u  
+ W=.4u         
M_U2_C19_M2         U2_C19_N26867 N117546 U2_C19_N27165 0 CMOSN  
+ L=.2u  
+ W=.4u         
M_U2_C19_M3         U2_C19_N27085 U2_C19_N27085 N115794 N115794 CMOSP  
+ L=.2u  
+ W=.6u         
M_U2_C26_M4         U2_C26_N26867 U2_C26_N27085 N115794 N115794 CMOSP  
+ L=.2u  
+ W=.6u         
M_U2_C26_M5         U2_C26_N27165 N115811 0 0 CMOSN  
+ L=.2u  
+ W=.6u         
M_U2_C26_M6         Q26 U2_C26_N26867 N115794 N115794 CMOSP  
+ L=.2u  
+ W=.8u         
M_U2_C26_M7         Q26 N115811 0 0 CMOSN  
+ L=.2u  
+ W=.4u         
M_U2_C26_M1         U2_C26_N27085 N115961 U2_C26_N27165 0 CMOSN  
+ L=.2u  
+ W=.4u         
M_U2_C26_M2         U2_C26_N26867 N117536 U2_C26_N27165 0 CMOSN  
+ L=.2u  
+ W=.4u         
M_U2_C26_M3         U2_C26_N27085 U2_C26_N27085 N115794 N115794 CMOSP  
+ L=.2u  
+ W=.6u         
M_U2_C49_M4         U2_C49_N26867 U2_C49_N27085 N115794 N115794 CMOSP  
+ L=.2u  
+ W=.6u         
M_U2_C49_M5         U2_C49_N27165 N115811 0 0 CMOSN  
+ L=.2u  
+ W=.6u         
M_U2_C49_M6         Q49 U2_C49_N26867 N115794 N115794 CMOSP  
+ L=.2u  
+ W=.8u         
M_U2_C49_M7         Q49 N115811 0 0 CMOSN  
+ L=.2u  
+ W=.4u         
M_U2_C49_M1         U2_C49_N27085 N115961 U2_C49_N27165 0 CMOSN  
+ L=.2u  
+ W=.4u         
M_U2_C49_M2         U2_C49_N26867 N117500 U2_C49_N27165 0 CMOSN  
+ L=.2u  
+ W=.4u         
M_U2_C49_M3         U2_C49_N27085 U2_C49_N27085 N115794 N115794 CMOSP  
+ L=.2u  
+ W=.6u         
M_U2_C40_M4         U2_C40_N26867 U2_C40_N27085 N115794 N115794 CMOSP  
+ L=.2u  
+ W=.6u         
M_U2_C40_M5         U2_C40_N27165 N115811 0 0 CMOSN  
+ L=.2u  
+ W=.6u         
M_U2_C40_M6         Q40 U2_C40_N26867 N115794 N115794 CMOSP  
+ L=.2u  
+ W=.8u         
M_U2_C40_M7         Q40 N115811 0 0 CMOSN  
+ L=.2u  
+ W=.4u         
M_U2_C40_M1         U2_C40_N27085 N115961 U2_C40_N27165 0 CMOSN  
+ L=.2u  
+ W=.4u         
M_U2_C40_M2         U2_C40_N26867 N117504 U2_C40_N27165 0 CMOSN  
+ L=.2u  
+ W=.4u         
M_U2_C40_M3         U2_C40_N27085 U2_C40_N27085 N115794 N115794 CMOSP  
+ L=.2u  
+ W=.6u         
M_U2_C48_M4         U2_C48_N26867 U2_C48_N27085 N115794 N115794 CMOSP  
+ L=.2u  
+ W=.6u         
M_U2_C48_M5         U2_C48_N27165 N115811 0 0 CMOSN  
+ L=.2u  
+ W=.6u         
M_U2_C48_M6         Q48 U2_C48_N26867 N115794 N115794 CMOSP  
+ L=.2u  
+ W=.8u         
M_U2_C48_M7         Q48 N115811 0 0 CMOSN  
+ L=.2u  
+ W=.4u         
M_U2_C48_M1         U2_C48_N27085 N115961 U2_C48_N27165 0 CMOSN  
+ L=.2u  
+ W=.4u         
M_U2_C48_M2         U2_C48_N26867 N117498 U2_C48_N27165 0 CMOSN  
+ L=.2u  
+ W=.4u         
M_U2_C48_M3         U2_C48_N27085 U2_C48_N27085 N115794 N115794 CMOSP  
+ L=.2u  
+ W=.6u         
M_U2_U11_U6_M5         U2_U11_N62152 U2_U11_Y N115794 N115794 CMOSP  
+ L=.18u  
+ W=.2u         
M_U2_U11_U6_M6         U2_U11_N62152 U2_U11_Y U2_U11_U6_N39991 0 CMOSN  
+ L=.18u  
+ W=.18u         
M_U2_U11_U6_M2         U2_U11_U6_N39991 U2_N538210 0 0 CMOSN  
+ L=.18u  
+ W=.18u         
M_U2_U11_U6_M4         U2_U11_N62152 U2_N538210 N115794 N115794 CMOSP  
+ L=.18u  
+ W=.2u         
M_U2_U11_U1_M2         U2_U11_U1_N27355 N116065 U2_U11_U1_N27381
+  U2_U11_U1_N27381 CMOSN  
+ L=.18u  
+ W=.18u         
M_U2_U11_U1_M3         U2_U11_Y U2_U11_X N115794 N115794 CMOSP  
+ L=.18u  
+ W=.2u         
M_U2_U11_U1_M6         U2_U11_U1_N27381 U2_U11_N62152 0 0 CMOSN  
+ L=.18u  
+ W=.18u         
M_U2_U11_U1_M4         U2_U11_Y N116065 N115794 N115794 CMOSP  
+ L=.18u  
+ W=.2u         
M_U2_U11_U1_M1         U2_U11_Y U2_U11_X U2_U11_U1_N27355 U2_U11_U1_N27355
+  CMOSN  
+ L=.18u  
+ W=.18u         
M_U2_U11_U1_M5         U2_U11_Y U2_U11_N62152 N115794 N115794 CMOSP  
+ L=.18u  
+ W=.2u         
M_U2_U11_U2_M5         U2_U11_N62128 U2_U11_N62152 N115794 N115794 CMOSP  
+ L=.18u  
+ W=.2u         
M_U2_U11_U2_M6         U2_U11_N62128 U2_U11_N62152 U2_U11_U2_N39991 0 CMOSN  
+ L=.18u  
+ W=.18u         
M_U2_U11_U2_M2         U2_U11_U2_N39991 U2_U11_X 0 0 CMOSN  
+ L=.18u  
+ W=.18u         
M_U2_U11_U2_M4         U2_U11_N62128 U2_U11_X N115794 N115794 CMOSP  
+ L=.18u  
+ W=.2u         
M_U2_U11_U3_M5         U2_U11_X U2_U11_N62128 N115794 N115794 CMOSP  
+ L=.18u  
+ W=.2u         
M_U2_U11_U3_M6         U2_U11_X U2_U11_N62128 U2_U11_U3_N39991 0 CMOSN  
+ L=.18u  
+ W=.18u         
M_U2_U11_U3_M2         U2_U11_U3_N39991 N116065 0 0 CMOSN  
+ L=.18u  
+ W=.18u         
M_U2_U11_U3_M4         U2_U11_X N116065 N115794 N115794 CMOSP  
+ L=.18u  
+ W=.2u         
M_U2_U11_U4_M5         5SB U2_U11_X N115794 N115794 CMOSP  
+ L=.18u  
+ W=.2u         
M_U2_U11_U4_M6         5SB U2_U11_X U2_U11_U4_N39991 0 CMOSN  
+ L=.18u  
+ W=.18u         
M_U2_U11_U4_M2         U2_U11_U4_N39991 N125119 0 0 CMOSN  
+ L=.18u  
+ W=.18u         
M_U2_U11_U4_M4         5SB N125119 N115794 N115794 CMOSP  
+ L=.18u  
+ W=.2u         
M_U2_U11_U5_M5         N125119 5SB N115794 N115794 CMOSP  
+ L=.18u  
+ W=.2u         
M_U2_U11_U5_M6         N125119 5SB U2_U11_U5_N39991 0 CMOSN  
+ L=.18u  
+ W=.18u         
M_U2_U11_U5_M2         U2_U11_U5_N39991 U2_U11_Y 0 0 CMOSN  
+ L=.18u  
+ W=.18u         
M_U2_U11_U5_M4         N125119 U2_U11_Y N115794 N115794 CMOSP  
+ L=.18u  
+ W=.2u         
M_U2_C6_M4         U2_C6_N26867 U2_C6_N27085 N115794 N115794 CMOSP  
+ L=.2u  
+ W=.6u         
M_U2_C6_M5         U2_C6_N27165 N115811 0 0 CMOSN  
+ L=.2u  
+ W=.6u         
M_U2_C6_M6         Q6 U2_C6_N26867 N115794 N115794 CMOSP  
+ L=.2u  
+ W=.8u         
M_U2_C6_M7         Q6 N115811 0 0 CMOSN  
+ L=.2u  
+ W=.4u         
M_U2_C6_M1         U2_C6_N27085 N115961 U2_C6_N27165 0 CMOSN  
+ L=.2u  
+ W=.4u         
M_U2_C6_M2         U2_C6_N26867 N117572 U2_C6_N27165 0 CMOSN  
+ L=.2u  
+ W=.4u         
M_U2_C6_M3         U2_C6_N27085 U2_C6_N27085 N115794 N115794 CMOSP  
+ L=.2u  
+ W=.6u         
M_U2_U9_U31_M5         U2_U9_N568171 Q2 N115794 N115794 CMOSP  
+ L=.18u  
+ W=.2u         
M_U2_U9_U31_M6         U2_U9_N568171 Q2 0 0 CMOSN  
+ L=.18u  
+ W=.18u         
M_U2_U9_U16_M5         U2_U9_N565094 Q16 N115794 N115794 CMOSP  
+ L=.18u  
+ W=.2u         
M_U2_U9_U16_M6         U2_U9_N565094 Q16 0 0 CMOSN  
+ L=.18u  
+ W=.18u         
M_U2_U9_U91_M5         U2_U9_N577856 U2_U9_N578578 N115794 N115794 CMOSP  
+ L=.18u  
+ W=.2u         
M_U2_U9_U91_M6         U2_U9_N577856 U2_U9_N578578 U2_U9_U91_N39991 0 CMOSN  
+ L=.18u  
+ W=.18u         
M_U2_U9_U91_M2         U2_U9_U91_N39991 Q31 0 0 CMOSN  
+ L=.18u  
+ W=.18u         
M_U2_U9_U91_M4         U2_U9_N577856 Q31 N115794 N115794 CMOSP  
+ L=.18u  
+ W=.2u         
M_U2_U9_U65_M5         U2_U9_N568485 U2_U9_N7604009 N115794 N115794 CMOSP  
+ L=.18u  
+ W=.2u         
M_U2_U9_U65_M6         U2_U9_N568485 U2_U9_N7604009 0 0 CMOSN  
+ L=.18u  
+ W=.18u         
M_U2_U9_U2_M5         U2_U9_N259339 U2_N537478 N115794 N115794 CMOSP  
+ L=.18u  
+ W=.2u         
M_U2_U9_U2_M6         U2_U9_N259339 U2_N537478 0 0 CMOSN  
+ L=.18u  
+ W=.18u         
M_U2_U9_U96_M5         U2_U9_N577828 U2_U9_N578514 N115794 N115794 CMOSP  
+ L=.18u  
+ W=.2u         
M_U2_U9_U96_M6         U2_U9_N577828 U2_U9_N578514 U2_U9_U96_N39991 0 CMOSN  
+ L=.18u  
+ W=.18u         
M_U2_U9_U96_M2         U2_U9_U96_N39991 Q21 0 0 CMOSN  
+ L=.18u  
+ W=.18u         
M_U2_U9_U96_M4         U2_U9_N577828 Q21 N115794 N115794 CMOSP  
+ L=.18u  
+ W=.2u         
M_U2_U9_U109_M5         U2_U9_N573020 Q48 N115794 N115794 CMOSP  
+ L=.18u  
+ W=.2u         
M_U2_U9_U109_M6         U2_U9_N573020 Q48 0 0 CMOSN  
+ L=.18u  
+ W=.18u         
M_U2_U9_U57_M5         U2_U9_N567883 U2_U9_N567821 N115794 N115794 CMOSP  
+ L=.18u  
+ W=.2u         
M_U2_U9_U57_M6         U2_U9_N567883 U2_U9_N567821 U2_U9_U57_N39991 0 CMOSN  
+ L=.18u  
+ W=.18u         
M_U2_U9_U57_M2         U2_U9_U57_N39991 Q46 0 0 CMOSN  
+ L=.18u  
+ W=.18u         
M_U2_U9_U57_M4         U2_U9_N567883 Q46 N115794 N115794 CMOSP  
+ L=.18u  
+ W=.2u         
M_U2_U9_U28_M5         U2_U9_N565380 U2_U9_N565120 N115794 N115794 CMOSP  
+ L=.18u  
+ W=.2u         
M_U2_U9_U28_M6         U2_U9_N565380 U2_U9_N565120 U2_U9_U28_N39991 0 CMOSN  
+ L=.18u  
+ W=.18u         
M_U2_U9_U28_M2         U2_U9_U28_N39991 Q44 0 0 CMOSN  
+ L=.18u  
+ W=.18u         
M_U2_U9_U28_M4         U2_U9_N565380 Q44 N115794 N115794 CMOSP  
+ L=.18u  
+ W=.2u         
M_U2_U9_U139_M5         U2_U9_N575374 X4 N115794 N115794 CMOSP  
+ L=.18u  
+ W=.2u         
M_U2_U9_U139_M6         U2_U9_N575374 X4 0 0 CMOSN  
+ L=.18u  
+ W=.18u         
M_U2_U9_U74_M5         U2_U9_N578674 Q12 N115794 N115794 CMOSP  
+ L=.18u  
+ W=.2u         
M_U2_U9_U74_M6         U2_U9_N578674 Q12 0 0 CMOSN  
+ L=.18u  
+ W=.18u         
M_U2_U9_U43_M5         U2_U9_N567821 Q44 N115794 N115794 CMOSP  
+ L=.18u  
+ W=.2u         
M_U2_U9_U43_M6         U2_U9_N567821 Q44 0 0 CMOSN  
+ L=.18u  
+ W=.18u         
M_U2_U9_U80_M5         U2_U9_N578524 Q22 N115794 N115794 CMOSP  
+ L=.18u  
+ W=.2u         
M_U2_U9_U80_M6         U2_U9_N578524 Q22 0 0 CMOSN  
+ L=.18u  
+ W=.18u         
M_U2_U9_U14_M5         U2_U9_N565346 Q4 N115794 N115794 CMOSP  
+ L=.18u  
+ W=.2u         
M_U2_U9_U14_M6         U2_U9_N565346 Q4 0 0 CMOSN  
+ L=.18u  
+ W=.18u         
M_U2_U9_U136_M5         U2_U9_N575328 X1 N115794 N115794 CMOSP  
+ L=.18u  
+ W=.2u         
M_U2_U9_U136_M6         U2_U9_N575328 X1 0 0 CMOSN  
+ L=.18u  
+ W=.18u         
M_U2_U9_U116_M5         U2_U9_N573096 Q62 N115794 N115794 CMOSP  
+ L=.18u  
+ W=.2u         
M_U2_U9_U116_M6         U2_U9_N573096 Q62 0 0 CMOSN  
+ L=.18u  
+ W=.18u         
M_U2_U9_U124_M5         U2_U9_N572214 U2_U9_N572160 N115794 N115794 CMOSP  
+ L=.18u  
+ W=.2u         
M_U2_U9_U124_M6         U2_U9_N572214 U2_U9_N572160 U2_U9_U124_N39991 0 CMOSN  
+ L=.18u  
+ W=.18u         
M_U2_U9_U124_M2         U2_U9_U124_N39991 Q47 0 0 CMOSN  
+ L=.18u  
+ W=.18u         
M_U2_U9_U124_M4         U2_U9_N572214 Q47 N115794 N115794 CMOSP  
+ L=.18u  
+ W=.2u         
M_U2_U9_U69_M5         U2_U9_N578608 Q2 N115794 N115794 CMOSP  
+ L=.18u  
+ W=.2u         
M_U2_U9_U69_M6         U2_U9_N578608 Q2 0 0 CMOSN  
+ L=.18u  
+ W=.18u         
M_U2_U9_U86_M5         U2_U9_N577748 U2_U9_N578636 N115794 N115794 CMOSP  
+ L=.18u  
+ W=.2u         
M_U2_U9_U86_M6         U2_U9_N577748 U2_U9_N578636 U2_U9_U86_N39991 0 CMOSN  
+ L=.18u  
+ W=.18u         
M_U2_U9_U86_M2         U2_U9_U86_N39991 Q7 0 0 CMOSN  
+ L=.18u  
+ W=.18u         
M_U2_U9_U86_M4         U2_U9_N577748 Q7 N115794 N115794 CMOSP  
+ L=.18u  
+ W=.2u         
M_U2_U9_U26_M5         U2_U9_N564842 U2_U9_N565104 N115794 N115794 CMOSP  
+ L=.18u  
+ W=.2u         
M_U2_U9_U26_M6         U2_U9_N564842 U2_U9_N565104 U2_U9_U26_N39991 0 CMOSN  
+ L=.18u  
+ W=.18u         
M_U2_U9_U26_M2         U2_U9_U26_N39991 Q28 0 0 CMOSN  
+ L=.18u  
+ W=.18u         
M_U2_U9_U26_M4         U2_U9_N564842 Q28 N115794 N115794 CMOSP  
+ L=.18u  
+ W=.2u         
M_U2_U9_U103_M5         U2_U9_N572104 Q36 N115794 N115794 CMOSP  
+ L=.18u  
+ W=.2u         
M_U2_U9_U103_M6         U2_U9_N572104 Q36 0 0 CMOSN  
+ L=.18u  
+ W=.18u         
M_U2_U9_U37_M5         U2_U9_N568555 Q24 N115794 N115794 CMOSP  
+ L=.18u  
+ W=.2u         
M_U2_U9_U37_M6         U2_U9_N568555 Q24 0 0 CMOSN  
+ L=.18u  
+ W=.18u         
M_U2_U9_U61_M5         U2_U9_N568303 U2_U9_N567861 N115794 N115794 CMOSP  
+ L=.18u  
+ W=.2u         
M_U2_U9_U61_M6         U2_U9_N568303 U2_U9_N567861 U2_U9_U61_N39991 0 CMOSN  
+ L=.18u  
+ W=.18u         
M_U2_U9_U61_M2         U2_U9_U61_N39991 Q62 0 0 CMOSN  
+ L=.18u  
+ W=.18u         
M_U2_U9_U61_M4         U2_U9_N568303 Q62 N115794 N115794 CMOSP  
+ L=.18u  
+ W=.2u         
M_U2_U9_U119_M5         U2_U9_N572186 U2_U9_N572104 N115794 N115794 CMOSP  
+ L=.18u  
+ W=.2u         
M_U2_U9_U119_M6         U2_U9_N572186 U2_U9_N572104 U2_U9_U119_N39991 0 CMOSN  
+ L=.18u  
+ W=.18u         
M_U2_U9_U119_M2         U2_U9_U119_N39991 Q37 0 0 CMOSN  
+ L=.18u  
+ W=.18u         
M_U2_U9_U119_M4         U2_U9_N572186 Q37 N115794 N115794 CMOSP  
+ L=.18u  
+ W=.2u         
M_U2_U9_U48_M5         U2_U9_N568271 U2_U9_N568511 N115794 N115794 CMOSP  
+ L=.18u  
+ W=.2u         
M_U2_U9_U48_M6         U2_U9_N568271 U2_U9_N568511 U2_U9_U48_N39991 0 CMOSN  
+ L=.18u  
+ W=.18u         
M_U2_U9_U48_M2         U2_U9_U48_N39991 Q10 0 0 CMOSN  
+ L=.18u  
+ W=.18u         
M_U2_U9_U48_M4         U2_U9_N568271 Q10 N115794 N115794 CMOSP  
+ L=.18u  
+ W=.2u         
M_U2_U9_U64_M16         U2_U9_N7604009 U2_U9_N567883 N115794 N115794 CMOSP  
+ L=.18u  
+ W=.2u         
M_U2_U9_U64_M5         U2_U9_N7604009 U2_U9_N568303 N115794 N115794 CMOSP  
+ L=.18u  
+ W=.2u         
M_U2_U9_U64_M11         U2_U9_N7604009 U2_U9_N567441 N115794 N115794 CMOSP  
+ L=.18u  
+ W=.2u         
M_U2_U9_U64_M9         U2_U9_N7604009 U2_U9_N568069 N115794 N115794 CMOSP  
+ L=.18u  
+ W=.2u         
M_U2_U9_U64_M1         U2_U9_N7604009 U2_U9_N567441 U2_U9_U64_N67495 0 CMOSN  
+ L=.18u  
+ W=.18u         
M_U2_U9_U64_M6         U2_U9_U64_N66385 U2_U9_N567879 U2_U9_U64_N66425 0 CMOSN 
+  
+ L=.18u  
+ W=.18u         
M_U2_U9_U64_M7         U2_U9_U64_N66425 U2_U9_N567883 U2_U9_U64_N66937 0 CMOSN 
+  
+ L=.18u  
+ W=.18u         
M_U2_U9_U64_M12         U2_U9_N7604009 U2_U9_N568995 N115794 N115794 CMOSP  
+ L=.18u  
+ W=.2u         
M_U2_U9_U64_M2         U2_U9_U64_N67495 U2_U9_N567415 U2_U9_U64_N66385 0 CMOSN 
+  
+ L=.18u  
+ W=.18u         
M_U2_U9_U64_M13         U2_U9_U64_N67207 U2_U9_N568069 U2_U9_U64_N67213 0 CMOSN
+   
+ L=.18u  
+ W=.18u         
M_U2_U9_U64_M10         U2_U9_U64_N66937 U2_U9_N568995 U2_U9_U64_N67207 0 CMOSN
+   
+ L=.18u  
+ W=.18u         
M_U2_U9_U64_M3         U2_U9_N7604009 U2_U9_N567415 N115794 N115794 CMOSP  
+ L=.18u  
+ W=.2u         
M_U2_U9_U64_M14         U2_U9_U64_N67213 U2_U9_N568185 U2_U9_U64_N66527 0 CMOSN
+   
+ L=.18u  
+ W=.18u         
M_U2_U9_U64_M8         U2_U9_N7604009 U2_U9_N568185 N115794 N115794 CMOSP  
+ L=.18u  
+ W=.2u         
M_U2_U9_U64_M4         U2_U9_N7604009 U2_U9_N567879 N115794 N115794 CMOSP  
+ L=.18u  
+ W=.2u         
M_U2_U9_U64_M15         U2_U9_U64_N66527 U2_U9_N568303 0 0 CMOSN  
+ L=.18u  
+ W=.18u         
M_U2_U9_U52_M5         U2_U9_N568231 U2_U9_N568555 N115794 N115794 CMOSP  
+ L=.18u  
+ W=.2u         
M_U2_U9_U52_M6         U2_U9_N568231 U2_U9_N568555 U2_U9_U52_N39991 0 CMOSN  
+ L=.18u  
+ W=.18u         
M_U2_U9_U52_M2         U2_U9_U52_N39991 Q26 0 0 CMOSN  
+ L=.18u  
+ W=.18u         
M_U2_U9_U52_M4         U2_U9_N568231 Q26 N115794 N115794 CMOSP  
+ L=.18u  
+ W=.2u         
M_U2_U9_U108_M5         U2_U9_N572160 Q46 N115794 N115794 CMOSP  
+ L=.18u  
+ W=.2u         
M_U2_U9_U108_M6         U2_U9_N572160 Q46 0 0 CMOSN  
+ L=.18u  
+ W=.18u         
M_U2_U9_U35_M5         U2_U9_N568535 Q16 N115794 N115794 CMOSP  
+ L=.18u  
+ W=.2u         
M_U2_U9_U35_M6         U2_U9_N568535 Q16 0 0 CMOSN  
+ L=.18u  
+ W=.18u         
M_U2_U9_U24_M5         U2_U9_N565404 U2_U9_N565082 N115794 N115794 CMOSP  
+ L=.18u  
+ W=.2u         
M_U2_U9_U24_M6         U2_U9_N565404 U2_U9_N565082 U2_U9_U24_N39991 0 CMOSN  
+ L=.18u  
+ W=.18u         
M_U2_U9_U24_M2         U2_U9_U24_N39991 Q12 0 0 CMOSN  
+ L=.18u  
+ W=.18u         
M_U2_U9_U24_M4         U2_U9_N565404 Q12 N115794 N115794 CMOSP  
+ L=.18u  
+ W=.2u         
M_U2_U9_U135_M16         X4 U2_U9_N572634 N115794 N115794 CMOSP  
+ L=.18u  
+ W=.2u         
M_U2_U9_U135_M5         X4 U2_U9_N572658 N115794 N115794 CMOSP  
+ L=.18u  
+ W=.2u         
M_U2_U9_U135_M11         X4 U2_U9_N572622 N115794 N115794 CMOSP  
+ L=.18u  
+ W=.2u         
M_U2_U9_U135_M9         X4 U2_U9_N572642 N115794 N115794 CMOSP  
+ L=.18u  
+ W=.2u         
M_U2_U9_U135_M1         X4 U2_U9_N572622 U2_U9_U135_N67495 0 CMOSN  
+ L=.18u  
+ W=.18u         
M_U2_U9_U135_M6         U2_U9_U135_N66385 U2_U9_N572630 U2_U9_U135_N66425 0
+  CMOSN  
+ L=.18u  
+ W=.18u         
M_U2_U9_U135_M7         U2_U9_U135_N66425 U2_U9_N572634 U2_U9_U135_N66937 0
+  CMOSN  
+ L=.18u  
+ W=.18u         
M_U2_U9_U135_M12         X4 U2_U9_N572580 N115794 N115794 CMOSP  
+ L=.18u  
+ W=.2u         
M_U2_U9_U135_M2         U2_U9_U135_N67495 U2_U9_N572626 U2_U9_U135_N66385 0
+  CMOSN  
+ L=.18u  
+ W=.18u         
M_U2_U9_U135_M13         U2_U9_U135_N67207 U2_U9_N572642 U2_U9_U135_N67213 0
+  CMOSN  
+ L=.18u  
+ W=.18u         
M_U2_U9_U135_M10         U2_U9_U135_N66937 U2_U9_N572580 U2_U9_U135_N67207 0
+  CMOSN  
+ L=.18u  
+ W=.18u         
M_U2_U9_U135_M3         X4 U2_U9_N572626 N115794 N115794 CMOSP  
+ L=.18u  
+ W=.2u         
M_U2_U9_U135_M14         U2_U9_U135_N67213 U2_U9_N572650 U2_U9_U135_N66527 0
+  CMOSN  
+ L=.18u  
+ W=.18u         
M_U2_U9_U135_M8         X4 U2_U9_N572650 N115794 N115794 CMOSP  
+ L=.18u  
+ W=.2u         
M_U2_U9_U135_M4         X4 U2_U9_N572630 N115794 N115794 CMOSP  
+ L=.18u  
+ W=.2u         
M_U2_U9_U135_M15         U2_U9_U135_N66527 U2_U9_N572658 0 0 CMOSN  
+ L=.18u  
+ W=.18u         
M_U2_U9_U115_M5         U2_U9_N573086 Q60 N115794 N115794 CMOSP  
+ L=.18u  
+ W=.2u         
M_U2_U9_U115_M6         U2_U9_N573086 Q60 0 0 CMOSN  
+ L=.18u  
+ W=.18u         
M_U2_U9_U90_M5         U2_U9_N577760 U2_U9_N578686 N115794 N115794 CMOSP  
+ L=.18u  
+ W=.2u         
M_U2_U9_U90_M6         U2_U9_N577760 U2_U9_N578686 U2_U9_U90_N39991 0 CMOSN  
+ L=.18u  
+ W=.18u         
M_U2_U9_U90_M2         U2_U9_U90_N39991 Q15 0 0 CMOSN  
+ L=.18u  
+ W=.18u         
M_U2_U9_U90_M4         U2_U9_N577760 Q15 N115794 N115794 CMOSP  
+ L=.18u  
+ W=.2u         
M_U2_U9_U95_M5         U2_U9_N577832 U2_U9_N578524 N115794 N115794 CMOSP  
+ L=.18u  
+ W=.2u         
M_U2_U9_U95_M6         U2_U9_N577832 U2_U9_N578524 U2_U9_U95_N39991 0 CMOSN  
+ L=.18u  
+ W=.18u         
M_U2_U9_U95_M2         U2_U9_U95_N39991 Q23 0 0 CMOSN  
+ L=.18u  
+ W=.18u         
M_U2_U9_U95_M4         U2_U9_N577832 Q23 N115794 N115794 CMOSP  
+ L=.18u  
+ W=.2u         
M_U2_U9_U133_M5         U2_U9_N572622 U2_U9_N573020 N115794 N115794 CMOSP  
+ L=.18u  
+ W=.2u         
M_U2_U9_U133_M6         U2_U9_N572622 U2_U9_N573020 U2_U9_U133_N39991 0 CMOSN  
+ L=.18u  
+ W=.18u         
M_U2_U9_U133_M2         U2_U9_U133_N39991 Q49 0 0 CMOSN  
+ L=.18u  
+ W=.18u         
M_U2_U9_U133_M4         U2_U9_N572622 Q49 N115794 N115794 CMOSP  
+ L=.18u  
+ W=.2u         
M_U2_U9_U79_M5         U2_U9_N578534 Q24 N115794 N115794 CMOSP  
+ L=.18u  
+ W=.2u         
M_U2_U9_U79_M6         U2_U9_N578534 Q24 0 0 CMOSN  
+ L=.18u  
+ W=.18u         
M_U2_U9_U42_M5         U2_U9_N567831 Q48 N115794 N115794 CMOSP  
+ L=.18u  
+ W=.2u         
M_U2_U9_U42_M6         U2_U9_N567831 Q48 0 0 CMOSN  
+ L=.18u  
+ W=.18u         
M_U2_U9_U73_M5         U2_U9_N578662 Q10 N115794 N115794 CMOSP  
+ L=.18u  
+ W=.2u         
M_U2_U9_U73_M6         U2_U9_N578662 Q10 0 0 CMOSN  
+ L=.18u  
+ W=.18u         
M_U2_U9_U9_M5         U2_U9_N259637 U2_U9_N259543 N115794 N115794 CMOSP  
+ L=.18u  
+ W=.2u         
M_U2_U9_U9_M6         U2_U9_N259637 U2_U9_N259543 U2_U9_U9_N39991 0 CMOSN  
+ L=.18u  
+ W=.18u         
M_U2_U9_U9_M2         U2_U9_U9_N39991 Q40 0 0 CMOSN  
+ L=.18u  
+ W=.18u         
M_U2_U9_U9_M4         U2_U9_N259637 Q40 N115794 N115794 CMOSP  
+ L=.18u  
+ W=.2u         
M_U2_U9_U56_M5         U2_U9_N567879 U2_U9_N567811 N115794 N115794 CMOSP  
+ L=.18u  
+ W=.2u         
M_U2_U9_U56_M6         U2_U9_N567879 U2_U9_N567811 U2_U9_U56_N39991 0 CMOSN  
+ L=.18u  
+ W=.18u         
M_U2_U9_U56_M2         U2_U9_U56_N39991 Q42 0 0 CMOSN  
+ L=.18u  
+ W=.18u         
M_U2_U9_U56_M4         U2_U9_N567879 Q42 N115794 N115794 CMOSP  
+ L=.18u  
+ W=.2u         
M_U2_U9_U23_M5         U2_N541218 U2_U9_N565340 N115794 N115794 CMOSP  
+ L=.18u  
+ W=.2u         
M_U2_U9_U23_M6         U2_N541218 U2_U9_N565340 0 0 CMOSN  
+ L=.18u  
+ W=.18u         
M_U2_U9_U123_M5         U2_U9_N572206 U2_U9_N572144 N115794 N115794 CMOSP  
+ L=.18u  
+ W=.2u         
M_U2_U9_U123_M6         U2_U9_N572206 U2_U9_N572144 U2_U9_U123_N39991 0 CMOSN  
+ L=.18u  
+ W=.18u         
M_U2_U9_U123_M2         U2_U9_U123_N39991 Q45 0 0 CMOSN  
+ L=.18u  
+ W=.18u         
M_U2_U9_U123_M4         U2_U9_N572206 Q45 N115794 N115794 CMOSP  
+ L=.18u  
+ W=.2u         
M_U2_U9_U63_M16         U2_U9_N567419 U2_U9_N568285 N115794 N115794 CMOSP  
+ L=.18u  
+ W=.2u         
M_U2_U9_U63_M5         U2_U9_N567419 U2_U9_N568189 N115794 N115794 CMOSP  
+ L=.18u  
+ W=.2u         
M_U2_U9_U63_M11         U2_U9_N567419 U2_U9_N568171 N115794 N115794 CMOSP  
+ L=.18u  
+ W=.2u         
M_U2_U9_U63_M9         U2_U9_N567419 U2_U9_N568243 N115794 N115794 CMOSP  
+ L=.18u  
+ W=.2u         
M_U2_U9_U63_M1         U2_U9_N567419 U2_U9_N568171 U2_U9_U63_N67495 0 CMOSN  
+ L=.18u  
+ W=.18u         
M_U2_U9_U63_M6         U2_U9_U63_N66385 U2_U9_N568271 U2_U9_U63_N66425 0 CMOSN 
+  
+ L=.18u  
+ W=.18u         
M_U2_U9_U63_M7         U2_U9_U63_N66425 U2_U9_N568285 U2_U9_U63_N66937 0 CMOSN 
+  
+ L=.18u  
+ W=.18u         
M_U2_U9_U63_M12         U2_U9_N567419 U2_U9_N568251 N115794 N115794 CMOSP  
+ L=.18u  
+ W=.2u         
M_U2_U9_U63_M2         U2_U9_U63_N67495 U2_U9_N568263 U2_U9_U63_N66385 0 CMOSN 
+  
+ L=.18u  
+ W=.18u         
M_U2_U9_U63_M13         U2_U9_U63_N67207 U2_U9_N568243 U2_U9_U63_N67213 0 CMOSN
+   
+ L=.18u  
+ W=.18u         
M_U2_U9_U63_M10         U2_U9_U63_N66937 U2_U9_N568251 U2_U9_U63_N67207 0 CMOSN
+   
+ L=.18u  
+ W=.18u         
M_U2_U9_U63_M3         U2_U9_N567419 U2_U9_N568263 N115794 N115794 CMOSP  
+ L=.18u  
+ W=.2u         
M_U2_U9_U63_M14         U2_U9_U63_N67213 U2_U9_N568231 U2_U9_U63_N66527 0 CMOSN
+   
+ L=.18u  
+ W=.18u         
M_U2_U9_U63_M8         U2_U9_N567419 U2_U9_N568231 N115794 N115794 CMOSP  
+ L=.18u  
+ W=.2u         
M_U2_U9_U63_M4         U2_U9_N567419 U2_U9_N568271 N115794 N115794 CMOSP  
+ L=.18u  
+ W=.2u         
M_U2_U9_U63_M15         U2_U9_U63_N66527 U2_U9_N568189 0 0 CMOSN  
+ L=.18u  
+ W=.18u         
M_U2_U9_U21_M5         U2_U9_N564924 Q56 N115794 N115794 CMOSP  
+ L=.18u  
+ W=.2u         
M_U2_U9_U21_M6         U2_U9_N564924 Q56 0 0 CMOSN  
+ L=.18u  
+ W=.18u         
M_U2_U9_U134_M16         X3 U2_U9_N572190 N115794 N115794 CMOSP  
+ L=.18u  
+ W=.2u         
M_U2_U9_U134_M5         X3 U2_U9_N572214 N115794 N115794 CMOSP  
+ L=.18u  
+ W=.2u         
M_U2_U9_U134_M11         X3 U2_U9_N572170 N115794 N115794 CMOSP  
+ L=.18u  
+ W=.2u         
M_U2_U9_U134_M9         X3 U2_U9_N572198 N115794 N115794 CMOSP  
+ L=.18u  
+ W=.2u         
M_U2_U9_U134_M1         X3 U2_U9_N572170 U2_U9_U134_N67495 0 CMOSN  
+ L=.18u  
+ W=.18u         
M_U2_U9_U134_M6         U2_U9_U134_N66385 U2_U9_N572186 U2_U9_U134_N66425 0
+  CMOSN  
+ L=.18u  
+ W=.18u         
M_U2_U9_U134_M7         U2_U9_U134_N66425 U2_U9_N572190 U2_U9_U134_N66937 0
+  CMOSN  
+ L=.18u  
+ W=.18u         
M_U2_U9_U134_M12         X3 U2_U9_N572512 N115794 N115794 CMOSP  
+ L=.18u  
+ W=.2u         
M_U2_U9_U134_M2         U2_U9_U134_N67495 U2_U9_N572182 U2_U9_U134_N66385 0
+  CMOSN  
+ L=.18u  
+ W=.18u         
M_U2_U9_U134_M13         U2_U9_U134_N67207 U2_U9_N572198 U2_U9_U134_N67213 0
+  CMOSN  
+ L=.18u  
+ W=.18u         
M_U2_U9_U134_M10         U2_U9_U134_N66937 U2_U9_N572512 U2_U9_U134_N67207 0
+  CMOSN  
+ L=.18u  
+ W=.18u         
M_U2_U9_U134_M3         X3 U2_U9_N572182 N115794 N115794 CMOSP  
+ L=.18u  
+ W=.2u         
M_U2_U9_U134_M14         U2_U9_U134_N67213 U2_U9_N572206 U2_U9_U134_N66527 0
+  CMOSN  
+ L=.18u  
+ W=.18u         
M_U2_U9_U134_M8         X3 U2_U9_N572206 N115794 N115794 CMOSP  
+ L=.18u  
+ W=.2u         
M_U2_U9_U134_M4         X3 U2_U9_N572186 N115794 N115794 CMOSP  
+ L=.18u  
+ W=.2u         
M_U2_U9_U134_M15         U2_U9_U134_N66527 U2_U9_N572214 0 0 CMOSN  
+ L=.18u  
+ W=.18u         
M_U2_U9_U3_M5         U2_U9_N259565 Q16 N115794 N115794 CMOSP  
+ L=.18u  
+ W=.2u         
M_U2_U9_U3_M6         U2_U9_N259565 Q16 0 0 CMOSN  
+ L=.18u  
+ W=.18u         
M_U2_U9_U114_M5         U2_U9_N573076 Q58 N115794 N115794 CMOSP  
+ L=.18u  
+ W=.2u         
M_U2_U9_U114_M6         U2_U9_N573076 Q58 0 0 CMOSN  
+ L=.18u  
+ W=.18u         
M_U2_U9_U6_M5         U2_N538210 U2_U9_N259351 N115794 N115794 CMOSP  
+ L=.18u  
+ W=.2u         
M_U2_U9_U6_M6         U2_N538210 U2_U9_N259351 U2_U9_U6_N39991 0 CMOSN  
+ L=.18u  
+ W=.18u         
M_U2_U9_U6_M2         U2_U9_U6_N39991 U2_U9_N259199 0 0 CMOSN  
+ L=.18u  
+ W=.18u         
M_U2_U9_U6_M4         U2_N538210 U2_U9_N259199 N115794 N115794 CMOSP  
+ L=.18u  
+ W=.2u         
M_U2_U9_U102_M5         U2_U9_N572074 Q34 N115794 N115794 CMOSP  
+ L=.18u  
+ W=.2u         
M_U2_U9_U102_M6         U2_U9_N572074 Q34 0 0 CMOSN  
+ L=.18u  
+ W=.18u         
M_U2_U9_U36_M5         U2_U9_N568545 Q20 N115794 N115794 CMOSP  
+ L=.18u  
+ W=.2u         
M_U2_U9_U36_M6         U2_U9_N568545 Q20 0 0 CMOSN  
+ L=.18u  
+ W=.18u         
M_U2_U9_U68_M5         U2_U9_N577720 Q1 N115794 N115794 CMOSP  
+ L=.18u  
+ W=.2u         
M_U2_U9_U68_M6         U2_U9_N577720 Q1 0 0 CMOSN  
+ L=.18u  
+ W=.18u         
M_U2_U9_U85_M5         U2_U9_N577736 U2_U9_N578622 N115794 N115794 CMOSP  
+ L=.18u  
+ W=.2u         
M_U2_U9_U85_M6         U2_U9_N577736 U2_U9_N578622 U2_U9_U85_N39991 0 CMOSN  
+ L=.18u  
+ W=.18u         
M_U2_U9_U85_M2         U2_U9_U85_N39991 Q5 0 0 CMOSN  
+ L=.18u  
+ W=.18u         
M_U2_U9_U85_M4         U2_U9_N577736 Q5 N115794 N115794 CMOSP  
+ L=.18u  
+ W=.2u         
M_U2_U9_U107_M5         U2_U9_N572144 Q44 N115794 N115794 CMOSP  
+ L=.18u  
+ W=.2u         
M_U2_U9_U107_M6         U2_U9_N572144 Q44 0 0 CMOSN  
+ L=.18u  
+ W=.18u         
M_U2_U9_U140_M7         U2_N539698 U2_U9_N575328 N115794 N115794 CMOSP  
+ L=.18u  
+ W=.2u         
M_U2_U9_U140_M8         U2_N539698 U2_U9_N575362 N115794 N115794 CMOSP  
+ L=.18u  
+ W=.2u         
M_U2_U9_U140_M12         U2_N539698 U2_U9_N575374 N115794 N115794 CMOSP  
+ L=.18u  
+ W=.2u         
M_U2_U9_U140_M9         U2_N539698 U2_U9_N575382 N115794 N115794 CMOSP  
+ L=.18u  
+ W=.2u         
M_U2_U9_U140_M1         U2_N539698 U2_U9_N575328 U2_U9_U140_N88766 0 CMOSN  
+ L=.18u  
+ W=.18u         
M_U2_U9_U140_M10         U2_U9_U140_N88906 U2_U9_N575382 U2_U9_U140_N88946 0
+  CMOSN  
+ L=.18u  
+ W=.18u         
M_U2_U9_U140_M3         U2_U9_U140_N88766 U2_U9_N575362 U2_U9_U140_N88906 0
+  CMOSN  
+ L=.18u  
+ W=.18u         
M_U2_U9_U140_M11         U2_U9_U140_N88946 U2_U9_N575374 0 0 CMOSN  
+ L=.18u  
+ W=.18u         
M_U2_U9_U78_M5         U2_U9_N578552 Q26 N115794 N115794 CMOSP  
+ L=.18u  
+ W=.2u         
M_U2_U9_U78_M6         U2_U9_N578552 Q26 0 0 CMOSN  
+ L=.18u  
+ W=.18u         
M_U2_U9_U60_M5         U2_U9_N568185 U2_U9_N567851 N115794 N115794 CMOSP  
+ L=.18u  
+ W=.2u         
M_U2_U9_U60_M6         U2_U9_N568185 U2_U9_N567851 U2_U9_U60_N39991 0 CMOSN  
+ L=.18u  
+ W=.18u         
M_U2_U9_U60_M2         U2_U9_U60_N39991 Q58 0 0 CMOSN  
+ L=.18u  
+ W=.18u         
M_U2_U9_U60_M4         U2_U9_N568185 Q58 N115794 N115794 CMOSP  
+ L=.18u  
+ W=.2u         
M_U2_U9_U120_M5         U2_U9_N572190 U2_U9_N793529 N115794 N115794 CMOSP  
+ L=.18u  
+ W=.2u         
M_U2_U9_U120_M6         U2_U9_N572190 U2_U9_N793529 U2_U9_U120_N39991 0 CMOSN  
+ L=.18u  
+ W=.18u         
M_U2_U9_U120_M2         U2_U9_U120_N39991 Q39 0 0 CMOSN  
+ L=.18u  
+ W=.18u         
M_U2_U9_U120_M4         U2_U9_N572190 Q39 N115794 N115794 CMOSP  
+ L=.18u  
+ W=.2u         
M_U2_U9_U19_M5         U2_U9_N565120 Q40 N115794 N115794 CMOSP  
+ L=.18u  
+ W=.2u         
M_U2_U9_U19_M6         U2_U9_N565120 Q40 0 0 CMOSN  
+ L=.18u  
+ W=.18u         
M_U2_U9_U41_M5         U2_U9_N567841 Q52 N115794 N115794 CMOSP  
+ L=.18u  
+ W=.2u         
M_U2_U9_U41_M6         U2_U9_N567841 Q52 0 0 CMOSN  
+ L=.18u  
+ W=.18u         
M_U2_U9_U118_M5         U2_U9_N572182 U2_U9_N572074 N115794 N115794 CMOSP  
+ L=.18u  
+ W=.2u         
M_U2_U9_U118_M6         U2_U9_N572182 U2_U9_N572074 U2_U9_U118_N39991 0 CMOSN  
+ L=.18u  
+ W=.18u         
M_U2_U9_U118_M2         U2_U9_U118_N39991 Q35 0 0 CMOSN  
+ L=.18u  
+ W=.18u         
M_U2_U9_U118_M4         U2_U9_N572182 Q35 N115794 N115794 CMOSP  
+ L=.18u  
+ W=.2u         
M_U2_U9_U132_M5         U2_U9_N572626 U2_U9_N573036 N115794 N115794 CMOSP  
+ L=.18u  
+ W=.2u         
M_U2_U9_U132_M6         U2_U9_N572626 U2_U9_N573036 U2_U9_U132_N39991 0 CMOSN  
+ L=.18u  
+ W=.18u         
M_U2_U9_U132_M2         U2_U9_U132_N39991 Q51 0 0 CMOSN  
+ L=.18u  
+ W=.18u         
M_U2_U9_U132_M4         U2_U9_N572626 Q51 N115794 N115794 CMOSP  
+ L=.18u  
+ W=.2u         
M_U2_U9_U34_M5         U2_U9_N568523 Q12 N115794 N115794 CMOSP  
+ L=.18u  
+ W=.2u         
M_U2_U9_U34_M6         U2_U9_N568523 Q12 0 0 CMOSN  
+ L=.18u  
+ W=.18u         
M_U2_U9_U137_M5         U2_U9_N575362 X2 N115794 N115794 CMOSP  
+ L=.18u  
+ W=.2u         
M_U2_U9_U137_M6         U2_U9_N575362 X2 0 0 CMOSN  
+ L=.18u  
+ W=.18u         
M_U2_U9_U94_M5         U2_U9_N579510 U2_U9_N578534 N115794 N115794 CMOSP  
+ L=.18u  
+ W=.2u         
M_U2_U9_U94_M6         U2_U9_N579510 U2_U9_N578534 U2_U9_U94_N39991 0 CMOSN  
+ L=.18u  
+ W=.18u         
M_U2_U9_U94_M2         U2_U9_U94_N39991 Q25 0 0 CMOSN  
+ L=.18u  
+ W=.18u         
M_U2_U9_U94_M4         U2_U9_N579510 Q25 N115794 N115794 CMOSP  
+ L=.18u  
+ W=.2u         
M_U2_U9_U51_M5         U2_U9_N568243 U2_U9_N568545 N115794 N115794 CMOSP  
+ L=.18u  
+ W=.2u         
M_U2_U9_U51_M6         U2_U9_N568243 U2_U9_N568545 U2_U9_U51_N39991 0 CMOSN  
+ L=.18u  
+ W=.18u         
M_U2_U9_U51_M2         U2_U9_U51_N39991 Q22 0 0 CMOSN  
+ L=.18u  
+ W=.18u         
M_U2_U9_U51_M4         U2_U9_N568243 Q22 N115794 N115794 CMOSP  
+ L=.18u  
+ W=.2u         
M_U2_U9_U89_M5         U2_U9_N577772 U2_U9_N578674 N115794 N115794 CMOSP  
+ L=.18u  
+ W=.2u         
M_U2_U9_U89_M6         U2_U9_N577772 U2_U9_N578674 U2_U9_U89_N39991 0 CMOSN  
+ L=.18u  
+ W=.18u         
M_U2_U9_U89_M2         U2_U9_U89_N39991 Q13 0 0 CMOSN  
+ L=.18u  
+ W=.18u         
M_U2_U9_U89_M4         U2_U9_N577772 Q13 N115794 N115794 CMOSP  
+ L=.18u  
+ W=.2u         
M_U2_U9_U47_M5         U2_U9_N568263 U2_U9_N568499 N115794 N115794 CMOSP  
+ L=.18u  
+ W=.2u         
M_U2_U9_U47_M6         U2_U9_N568263 U2_U9_N568499 U2_U9_U47_N39991 0 CMOSN  
+ L=.18u  
+ W=.18u         
M_U2_U9_U47_M2         U2_U9_U47_N39991 Q6 0 0 CMOSN  
+ L=.18u  
+ W=.18u         
M_U2_U9_U47_M4         U2_U9_N568263 Q6 N115794 N115794 CMOSP  
+ L=.18u  
+ W=.2u         
M_U2_U9_U72_M5         U2_U9_N578650 Q8 N115794 N115794 CMOSP  
+ L=.18u  
+ W=.2u         
M_U2_U9_U72_M6         U2_U9_N578650 Q8 0 0 CMOSN  
+ L=.18u  
+ W=.18u         
M_U2_U9_U17_M5         U2_U9_N565104 Q24 N115794 N115794 CMOSP  
+ L=.18u  
+ W=.2u         
M_U2_U9_U17_M6         U2_U9_N565104 Q24 0 0 CMOSN  
+ L=.18u  
+ W=.18u         
M_U2_U9_U113_M5         U2_U9_N573066 Q56 N115794 N115794 CMOSP  
+ L=.18u  
+ W=.2u         
M_U2_U9_U113_M6         U2_U9_N573066 Q56 0 0 CMOSN  
+ L=.18u  
+ W=.18u         
M_U2_U9_U100_M16         X2 U2_U9_N577832 N115794 N115794 CMOSP  
+ L=.18u  
+ W=.2u         
M_U2_U9_U100_M5         X2 U2_U9_N577856 N115794 N115794 CMOSP  
+ L=.18u  
+ W=.2u         
M_U2_U9_U100_M11         X2 U2_U9_N577814 N115794 N115794 CMOSP  
+ L=.18u  
+ W=.2u         
M_U2_U9_U100_M9         X2 U2_U9_N577840 N115794 N115794 CMOSP  
+ L=.18u  
+ W=.2u         
M_U2_U9_U100_M1         X2 U2_U9_N577814 U2_U9_U100_N67495 0 CMOSN  
+ L=.18u  
+ W=.18u         
M_U2_U9_U100_M6         U2_U9_U100_N66385 U2_U9_N577828 U2_U9_U100_N66425 0
+  CMOSN  
+ L=.18u  
+ W=.18u         
M_U2_U9_U100_M7         U2_U9_U100_N66425 U2_U9_N577832 U2_U9_U100_N66937 0
+  CMOSN  
+ L=.18u  
+ W=.18u         
M_U2_U9_U100_M12         X2 U2_U9_N579510 N115794 N115794 CMOSP  
+ L=.18u  
+ W=.2u         
M_U2_U9_U100_M2         U2_U9_U100_N67495 U2_U9_N577818 U2_U9_U100_N66385 0
+  CMOSN  
+ L=.18u  
+ W=.18u         
M_U2_U9_U100_M13         U2_U9_U100_N67207 U2_U9_N577840 U2_U9_U100_N67213 0
+  CMOSN  
+ L=.18u  
+ W=.18u         
M_U2_U9_U100_M10         U2_U9_U100_N66937 U2_U9_N579510 U2_U9_U100_N67207 0
+  CMOSN  
+ L=.18u  
+ W=.18u         
M_U2_U9_U100_M3         X2 U2_U9_N577818 N115794 N115794 CMOSP  
+ L=.18u  
+ W=.2u         
M_U2_U9_U100_M14         U2_U9_U100_N67213 U2_U9_N577848 U2_U9_U100_N66527 0
+  CMOSN  
+ L=.18u  
+ W=.18u         
M_U2_U9_U100_M8         X2 U2_U9_N577848 N115794 N115794 CMOSP  
+ L=.18u  
+ W=.2u         
M_U2_U9_U100_M4         X2 U2_U9_N577828 N115794 N115794 CMOSP  
+ L=.18u  
+ W=.2u         
M_U2_U9_U100_M15         U2_U9_U100_N66527 U2_U9_N577856 0 0 CMOSN  
+ L=.18u  
+ W=.18u         
M_U2_U9_U55_M5         U2_U9_N567415 U2_U9_N567801 N115794 N115794 CMOSP  
+ L=.18u  
+ W=.2u         
M_U2_U9_U55_M6         U2_U9_N567415 U2_U9_N567801 U2_U9_U55_N39991 0 CMOSN  
+ L=.18u  
+ W=.18u         
M_U2_U9_U55_M2         U2_U9_U55_N39991 Q38 0 0 CMOSN  
+ L=.18u  
+ W=.18u         
M_U2_U9_U55_M4         U2_U9_N567415 Q38 N115794 N115794 CMOSP  
+ L=.18u  
+ W=.2u         
M_U2_U9_U29_M5         U2_U9_N565368 U2_U9_N565130 N115794 N115794 CMOSP  
+ L=.18u  
+ W=.2u         
M_U2_U9_U29_M6         U2_U9_N565368 U2_U9_N565130 U2_U9_U29_N39991 0 CMOSN  
+ L=.18u  
[...]

(U2_C9_N27085)     .1960              (U2_C9_N27165)     .1447                  

(1R-DIV_N02264)     .0618             (1R-DIV_N03019)     .2649                 

(1R-DIV_N03082)     .2117             (1R-DIV_N03146)     .1585                 

(1R-DIV_N03539)     .1053             (1R-DIV_N17274)     .0207                 

(2R-DIV_N02264)     .0618             (2R-DIV_N03019)     .2649                 

(2R-DIV_N03082)     .2117             (2R-DIV_N03146)     .1585                 

(2R-DIV_N03539)     .1053             (2R-DIV_N17274)     .0207                 

(U2_C10_N26867)     .2617             (U2_C10_N27085)     .1961                 

(U2_C10_N27165)     .1447             (U2_C11_N26867)     .2616                 

(U2_C11_N27085)     .1962             (U2_C11_N27165)     .1448                 

(U2_C12_N26867)     .2616             (U2_C12_N27085)     .1963                 

(U2_C12_N27165)     .1449             (U2_C13_N26867)     .2615                 

(U2_C13_N27085)     .1964             (U2_C13_N27165)     .1450                 

(U2_C14_N26867)     .2613             (U2_C14_N27085)     .1965                 

(U2_C14_N27165)     .1451             (U2_C15_N26867)     .2612                 

(U2_C15_N27085)     .1966             (U2_C15_N27165)     .1453                 

(U2_C16_N26867)     .2611             (U2_C16_N27085)     .1968                 

(U2_C16_N27165)     .1454             (U2_C17_N26867)     .2609                 

(U2_C17_N27085)     .1970             (U2_C17_N27165)     .1456                 

(U2_C18_N26867)     .2607             (U2_C18_N27085)     .1972                 

(U2_C18_N27165)     .1458             (U2_C19_N26867)     .2605                 

(U2_C19_N27085)     .1974             (U2_C19_N27165)     .1461                 

(U2_C20_N26867)     .2602             (U2_C20_N27085)     .1977                 

(U2_C20_N27165)     .1463             (U2_C21_N26867)     .2599                 

(U2_C21_N27085)     .1980             (U2_C21_N27165)     .1466                 

(U2_C22_N26867)     .2596             (U2_C22_N27085)     .1983                 

(U2_C22_N27165)     .1469             (U2_C23_N26867)     .2592                 

(U2_C23_N27085)     .1987             (U2_C23_N27165)     .1473                 

(U2_C24_N26867)     .2587             (U2_C24_N27085)     .1991                 

(U2_C24_N27165)     .1477             (U2_C25_N26867)     .2582                 

(U2_C25_N27085)     .1996             (U2_C25_N27165)     .1482                 

(U2_C26_N26867)     .2576             (U2_C26_N27085)     .2001                 

(U2_C26_N27165)     .1487             (U2_C27_N26867)     .2569                 

(U2_C27_N27085)     .2007             (U2_C27_N27165)     .1493                 

(U2_C28_N26867)     .2561             (U2_C28_N27085)     .2014                 

(U2_C28_N27165)     .1500             (U2_C29_N26867)     .2552                 

(U2_C29_N27085)     .2021             (U2_C29_N27165)     .1507                 

(U2_C30_N26867)     .2541             (U2_C30_N27085)     .2029                 

(U2_C30_N27165)     .1515             (U2_C31_N26867)     .2529                 

(U2_C31_N27085)     .2037             (U2_C31_N27165)     .1523                 

(U2_C32_N26867)     .2514             (U2_C32_N27085)     .2047                 

(U2_C32_N27165)     .1533             (U2_C33_N26867)     .2496                 

(U2_C33_N27085)     .2057             (U2_C33_N27165)     .1543                 

(U2_C34_N26867)     .2476             (U2_C34_N27085)     .2068                 

(U2_C34_N27165)     .1554             (U2_C35_N26867)     .2451                 

(U2_C35_N27085)     .2080             (U2_C35_N27165)     .1566                 

(U2_C36_N26867)     .2420             (U2_C36_N27085)     .2092                 

(U2_C36_N27165)     .1579             (U2_C37_N26867)     .2382                 

(U2_C37_N27085)     .2105             (U2_C37_N27165)     .1593                 

(U2_C38_N26867)     .2334             (U2_C38_N27085)     .2118                 

(U2_C38_N27165)     .1606             (U2_C39_N26867)     .2271                 

(U2_C39_N27085)     .2131             (U2_C39_N27165)     .1620                 

(U2_C40_N26867)     .2190             (U2_C40_N27085)     .2142                 

(U2_C40_N27165)     .1632             (U2_C41_N26867)     .2097                 

(U2_C41_N27085)     .2150             (U2_C41_N27165)     .1640                 

(U2_C42_N26867)     .2012             (U2_C42_N27085)     .2155                 

(U2_C42_N27165)     .1646             (U2_C43_N26867)     .1946                 

(U2_C43_N27085)     .2157             (U2_C43_N27165)     .1649                 

(U2_C44_N26867)     .1896             (U2_C44_N27085)     .2159                 

(U2_C44_N27165)     .1650             (U2_C45_N26867)     .1857                 

(U2_C45_N27085)     .2160             (U2_C45_N27165)     .1652                 

(U2_C46_N26867)     .1825             (U2_C46_N27085)     .2161                 

(U2_C46_N27165)     .1653             (U2_C47_N26867)     .1800                 

(U2_C47_N27085)     .2162             (U2_C47_N27165)     .1653                 

(U2_C48_N26867)     .1779             (U2_C48_N27085)     .2162                 

(U2_C48_N27165)     .1654             (U2_C49_N26867)     .1762                 

(U2_C49_N27085)     .2163             (U2_C49_N27165)     .1654                 

(U2_C50_N26867)     .1747             (U2_C50_N27085)     .2163                 

(U2_C50_N27165)     .1655             (U2_C51_N26867)     .1735                 

(U2_C51_N27085)     .2163             (U2_C51_N27165)     .1655                 

(U2_C52_N26867)     .1724             (U2_C52_N27085)     .2163                 

(U2_C52_N27165)     .1655             (U2_C53_N26867)     .1715                 

(U2_C53_N27085)     .2164             (U2_C53_N27165)     .1655                 

(U2_C54_N26867)     .1708             (U2_C54_N27085)     .2164                 

(U2_C54_N27165)     .1655             (U2_C55_N26867)     .1701                 

(U2_C55_N27085)     .2164             (U2_C55_N27165)     .1656                 

(U2_C56_N26867)     .1695             (U2_C56_N27085)     .2164                 

(U2_C56_N27165)     .1656             (U2_C57_N26867)     .1690                 

(U2_C57_N27085)     .2164             (U2_C57_N27165)     .1656                 

(U2_C58_N26867)     .1686             (U2_C58_N27085)     .2164                 

(U2_C58_N27165)     .1656             (U2_C59_N26867)     .1682                 

(U2_C59_N27085)     .2164             (U2_C59_N27165)     .1656                 

(U2_C60_N26867)     .1679             (U2_C60_N27085)     .2164                 

(U2_C60_N27165)     .1656             (U2_C61_N26867)     .1676                 

(U2_C61_N27085)     .2164             (U2_C61_N27165)     .1656                 

(U2_C62_N26867)     .1674             (U2_C62_N27085)     .2164                 

(U2_C62_N27165)     .1656             (U2_C63_N26867)     .1671                 

(U2_C63_N27085)     .2164             (U2_C63_N27165)     .1656                 

(U2_U10_N62128) 13.64E-06             (U2_U10_N62152)     .2618                 

(U2_U11_N62128)     .2620             (U2_U11_N62152) 13.58E-06                 

(U2_U12_N62128) 13.58E-06             (U2_U12_N62152)     .2620                 

(U2_U13_N62128)     .2620             (U2_U13_N62152) 13.59E-06                 

(U2_U14_N62128) 13.58E-06             (U2_U14_N62152)     .2620                 

(U2_U15_N62128) 13.62E-06             (U2_U15_N62152)     .2619                 

(U2_U9_N259199) 26.68E-06             (U2_U9_N259339)     .2618                 

(U2_U9_N259351)     .2619             (U2_U9_N259543)     .2618                 

(U2_U9_N259565)     .2619             (U2_U9_N259605) 10.86E-06                 

(U2_U9_N259627)     .2620             (U2_U9_N259637)     .2611                 

(U2_U9_N259645)     .2619             (U2_U9_N259649)     .2619                 

(U2_U9_N564842)     .2619             (U2_U9_N564920)     .2618                 

(U2_U9_N564924) 7.563E-06             (U2_U9_N565082)     .2619                 

(U2_U9_N565094)     .2619             (U2_U9_N565104)     .2618                 

(U2_U9_N565120)     .2610             (U2_U9_N565130) 10.86E-06                 

(U2_U9_N565340) 3.417E-06             (U2_U9_N565346)     .2619                 

(U2_U9_N565360)     .2620             (U2_U9_N565368)     .2620                 

(U2_U9_N565380) 69.73E-06             (U2_U9_N565392)     .2618                 

(U2_U9_N565404)     .2619             (U2_U9_N565416)     .2619                 

(U2_U9_N565498)     .2620             (U2_U9_N567401)     .2620                 

(U2_U9_N567415)     .2616             (U2_U9_N567419) 220.6E-06                 

(U2_U9_N567441)     .2618             (U2_U9_N567801)     .2617                 

(U2_U9_N567811)     .2610             (U2_U9_N567821) 41.02E-06                 

(U2_U9_N567831) 10.86E-06             (U2_U9_N567841) 8.395E-06                 

(U2_U9_N567851) 7.563E-06             (U2_U9_N567861) 7.185E-06                 

(U2_U9_N567879)     .0968             (U2_U9_N567883)     .2620                 

(U2_U9_N568069)     .2620             (U2_U9_N568171)     .2619                 

(U2_U9_N568185)     .2620             (U2_U9_N568189)     .2619                 

(U2_U9_N568231)     .2619             (U2_U9_N568243)     .2619                 

(U2_U9_N568251)     .2619             (U2_U9_N568263)     .2619                 

(U2_U9_N568271)     .2619             (U2_U9_N568285)     .2619                 

(U2_U9_N568303)     .2620             (U2_U9_N568485)     .2603                 

(U2_U9_N568499)     .2619             (U2_U9_N568511)     .2619                 

(U2_U9_N568523)     .2619             (U2_U9_N568535)     .2619                 

(U2_U9_N568545)     .2619             (U2_U9_N568555)     .2618                 

(U2_U9_N568565)     .2618             (U2_U9_N568995)     .2620                 

(U2_U9_N569141)     .2618             (U2_U9_N572064)     .2618                 

(U2_U9_N572074)     .2618             (U2_U9_N572104)     .2617                 

(U2_U9_N572124)     .2610             (U2_U9_N572134)     .0902                 

(U2_U9_N572144) 41.02E-06             (U2_U9_N572160) 14.98E-06                 

(U2_U9_N572170)     .2618             (U2_U9_N572182)     .2618                 

(U2_U9_N572186)     .2617             (U2_U9_N572190)     .2615                 

(U2_U9_N572198)     .0885             (U2_U9_N572206)     .2620                 

(U2_U9_N572214)     .2620             (U2_U9_N572512)     .2594                 

(U2_U9_N572580)     .2620             (U2_U9_N572622)     .2620                 

(U2_U9_N572626)     .2620             (U2_U9_N572630)     .2620                 

(U2_U9_N572634)     .2620             (U2_U9_N572642)     .2620                 

(U2_U9_N572650)     .2620             (U2_U9_N572658)     .2620                 

(U2_U9_N573020) 10.86E-06             (U2_U9_N573036) 9.241E-06                 

(U2_U9_N573046) 8.395E-06             (U2_U9_N573056) 7.890E-06                 

(U2_U9_N573066) 7.563E-06             (U2_U9_N573076) 7.341E-06                 

(U2_U9_N573086) 7.185E-06             (U2_U9_N573096) 7.073E-06                 

(U2_U9_N575328)     .2620             (U2_U9_N575362)     .2620                 

(U2_U9_N575374)     .2620             (U2_U9_N575382)     .1226                 

(U2_U9_N577720)     .2619             (U2_U9_N577728)     .2619                 

(U2_U9_N577736)     .2619             (U2_U9_N577748)     .2619                 

(U2_U9_N577760)     .2619             (U2_U9_N577772)     .2619                 

(U2_U9_N577784)     .2619             (U2_U9_N577796)     .2619                 

(U2_U9_N577814)     .2619             (U2_U9_N577818)     .2619                 

(U2_U9_N577828)     .2619             (U2_U9_N577832)     .2619                 

(U2_U9_N577840)     .2619             (U2_U9_N577848)     .2619                 

(U2_U9_N577856)     .2618             (U2_U9_N578480)     .2619                 

(U2_U9_N578504)     .2619             (U2_U9_N578514)     .2619                 

(U2_U9_N578524)     .2619             (U2_U9_N578534)     .2618                 

(U2_U9_N578552)     .2618             (U2_U9_N578562)     .2618                 

(U2_U9_N578578)     .2618             (U2_U9_N578608)     .2619                 

(U2_U9_N578622)     .2619             (U2_U9_N578636)     .2619                 

(U2_U9_N578650)     .2619             (U2_U9_N578662)     .2619                 

(U2_U9_N578674)     .2619             (U2_U9_N578686)     .2619                 

(U2_U9_N579510)     .2619             (U2_U9_N793529)     .2616                 

(1R-DIV_N169051)     .0159            (2R-DIV_N169051)     .0159                

(U2_U9_N7604009)     .0317            (U2_U9_U6_N39991)     .2008               

(U2_U9_U7_N39991) 16.22E-06           (U2_U9_U8_N39991)     .1970               

(U2_U9_U9_N39991)     .1842           (U2_U10_U1_N27355)     .2382              

(U2_U10_U1_N27381) 70.07E-06          (U2_U10_U2_N39991) 6.789E-06              

(U2_U10_U3_N39991)     .0211          (U2_U10_U4_N39991)     .0281              

(U2_U10_U5_N39991)     .0249          (U2_U10_U6_N39991)     .1961              

(U2_U11_U1_N27355)     .2479          (U2_U11_U1_N27381)     .0237              

(U2_U11_U2_N39991) 71.04E-06          (U2_U11_U3_N39991)     .2009              

(U2_U11_U4_N39991)     .0280          (U2_U11_U5_N39991)     .0248              

(U2_U11_U6_N39991) 6.809E-06          (U2_U12_U1_N27355)     .2382              

(U2_U12_U1_N27381) 69.87E-06          (U2_U12_U2_N39991) 6.772E-06              

(U2_U12_U3_N39991)     .0211          (U2_U12_U4_N39991)     .0281              

(U2_U12_U5_N39991)     .0249          (U2_U12_U6_N39991)     .2009              

(U2_U13_U1_N27355)     .2479          (U2_U13_U1_N27381)     .0237              

(U2_U13_U2_N39991) 71.04E-06          (U2_U13_U3_N39991)     .2009              

(U2_U13_U4_N39991)     .0280          (U2_U13_U5_N39991)     .0248              

(U2_U13_U6_N39991) 6.814E-06          (U2_U14_U1_N27355)     .2382              

(U2_U14_U1_N27381) 69.86E-06          (U2_U14_U2_N39991) 6.772E-06              

(U2_U14_U3_N39991)     .0211          (U2_U14_U4_N39991)     .0281              

(U2_U14_U5_N39991)     .0249          (U2_U14_U6_N39991)     .2009              

(U2_U15_U1_N27355)     .2382          (U2_U15_U1_N27381) 70.02E-06              

(U2_U15_U2_N39991) 6.785E-06          (U2_U15_U3_N39991)     .0211              

(U2_U15_U4_N39991)     .0281          (U2_U15_U5_N39991)     .0249              

(U2_U15_U6_N39991)     .1971          (U2_U9_U10_N39991) 95.97E-06              

(U2_U9_U12_N88766) 41.69E-06          (U2_U9_U12_N88906) 27.84E-06              

(U2_U9_U12_N88946) 13.81E-06          (U2_U9_U13_N66385)     .1828              

(U2_U9_U13_N66425)     .1712          (U2_U9_U13_N66527) 65.09E-06              

(U2_U9_U13_N66937)     .1628          (U2_U9_U13_N67207)     .1562              

(U2_U9_U13_N67213) 130.3E-06          (U2_U9_U13_N67495)     .2016              

(U2_U9_U24_N39991)     .1973          (U2_U9_U25_N39991)     .1972              

(U2_U9_U26_N39991)     .1967          (U2_U9_U27_N39991)     .1941              

(U2_U9_U28_N39991) 50.35E-06          (U2_U9_U29_N39991) 99.91E-06              

(U2_U9_U30_N39991) 94.09E-06          (U2_U9_U47_N39991)     .1974              

(U2_U9_U48_N39991)     .1974          (U2_U9_U49_N39991)     .1973              

(U2_U9_U50_N39991)     .1972          (U2_U9_U51_N39991)     .1971              

(U2_U9_U52_N39991)     .1969          (U2_U9_U53_N39991)     .1964              

(U2_U9_U54_N39991)     .1953          (U2_U9_U55_N39991)     .1916              

(U2_U9_U56_N39991)     .0899          (U2_U9_U57_N39991) 125.3E-06              

(U2_U9_U58_N39991) 103.7E-06          (U2_U9_U59_N39991) 97.54E-06              

(U2_U9_U60_N39991) 94.87E-06          (U2_U9_U61_N39991) 93.52E-06              

(U2_U9_U62_N39991) 7.023E-06          (U2_U9_U63_N66385) 165.4E-06              

(U2_U9_U63_N66425) 137.8E-06          (U2_U9_U63_N66527) 27.53E-06              

(U2_U9_U63_N66937) 110.2E-06          (U2_U9_U63_N67207) 82.63E-06              

(U2_U9_U63_N67213) 55.07E-06          (U2_U9_U63_N67495) 193.0E-06              

(U2_U9_U64_N66385)     .0298          (U2_U9_U64_N66425)     .0024              

(U2_U9_U64_N66527) 461.3E-06          (U2_U9_U64_N66937)     .0019              

(U2_U9_U64_N67207)     .0014          (U2_U9_U64_N67213) 927.5E-06              

(U2_U9_U64_N67495)     .0307          (U2_U9_U84_N39991)     .1974              

(U2_U9_U85_N39991)     .1974          (U2_U9_U86_N39991)     .1974              

(U2_U9_U87_N39991)     .1974          (U2_U9_U88_N39991)     .1974              

(U2_U9_U89_N39991)     .1973          (U2_U9_U90_N39991)     .1973              

(U2_U9_U91_N39991)     .1962          (U2_U9_U92_N39991)     .1965              

(U2_U9_U93_N39991)     .1968          (U2_U9_U94_N39991)     .1969              

(U2_U9_U95_N39991)     .1971          (U2_U9_U96_N39991)     .1972              

(U2_U9_U97_N39991)     .1972          (U2_U9_U98_N39991)     .1973              

(U2_U9_U99_N66385) 165.3E-06          (U2_U9_U99_N66425) 137.7E-06              

(U2_U9_U99_N66527) 27.51E-06          (U2_U9_U99_N66937) 110.1E-06              

(U2_U9_U99_N67207) 82.57E-06          (U2_U9_U99_N67213) 55.03E-06              

(U2_U9_U99_N67495) 192.9E-06          (U2_U9_U100_N66385) 165.4E-06             

(U2_U9_U100_N66425) 137.8E-06         (U2_U9_U100_N66527) 27.54E-06             

(U2_U9_U100_N66937) 110.2E-06         (U2_U9_U100_N67207) 82.66E-06             

(U2_U9_U100_N67213) 55.09E-06         (U2_U9_U100_N67495) 193.1E-06             

(U2_U9_U117_N39991)     .1956         (U2_U9_U118_N39991)     .1948             

(U2_U9_U119_N39991)     .1931         (U2_U9_U120_N39991)     .1890             

(U2_U9_U121_N39991)     .1724         (U2_U9_U122_N39991)     .0039             

(U2_U9_U123_N39991) 142.4E-06         (U2_U9_U124_N39991) 116.1E-06             

(U2_U9_U125_N39991) 93.30E-06         (U2_U9_U126_N39991) 93.78E-06             

(U2_U9_U127_N39991) 94.45E-06         (U2_U9_U129_N39991) 95.37E-06             

(U2_U9_U130_N39991) 96.68E-06         (U2_U9_U131_N39991) 98.60E-06             

(U2_U9_U132_N39991) 101.6E-06         (U2_U9_U133_N39991) 106.5E-06             

(U2_U9_U134_N66385)     .0755         (U2_U9_U134_N66425)     .0718             

(U2_U9_U134_N66527) 549.0E-06         (U2_U9_U134_N66937)     .0685             

(U2_U9_U134_N67207)     .0652         (U2_U9_U134_N67213)     .0011             

(U2_U9_U134_N67495)     .0797         (U2_U9_U135_N66385) 164.5E-06             

(U2_U9_U135_N66425) 137.1E-06         (U2_U9_U135_N66527) 27.38E-06             

(U2_U9_U135_N66937) 109.6E-06         (U2_U9_U135_N67207) 82.19E-06             

(U2_U9_U135_N67213) 54.77E-06         (U2_U9_U135_N67495) 192.0E-06             

(U2_U9_U140_N88766)     .0053         (U2_U9_U140_N88906)     .0051             

(U2_U9_U140_N88946) 225.3E-06         


**** Interrupt ****
