
**** 04/12/09 21:33:26 ******** PSpice Lite (Oct 2008) ******** ID# 10813 ****

 ** Profile: "Teorico-bias"  [ C:\Documents and Settings\fjferre1\My Documents\NOBACKUP\Tesis\Repo\Design\E-OPAMP-001\E-OPAMP-001-PSp


 ****     CIRCUIT DESCRIPTION


******************************************************************************




** Creating circuit file "bias.cir" 
** WARNING: THIS AUTOMATICALLY GENERATED FILE MAY BE OVERWRITTEN BY SUBSEQUENT SIMULATIONS

*Libraries: 
* Profile Libraries :
* Local Libraries :
.LIB "../../../e-opamp-001-pspicefiles/e-opamp-001.lib" 
* From [PSPICE NETLIST] section of C:\OrCAD\OrCAD_16.2\tools\PSpice\PSpice.ini file:
.lib "nomd.lib" 

*Analysis directives: 
.OP
.SAVEBIAS ".\bias_point.txt" OP 
.PROBE V(alias(*)) I(alias(*)) W(alias(*)) D(alias(*)) NOISE(alias(*)) 
.INC "..\Teorico.net" 



**** INCLUDING Teorico.net ****
* source E-OPAMP-001
M_M2         D10 0 D1 VDC_5 PMOS           
M_M3         D3 D1 VDC_5 VDC_5 PMOS           
M_M4         D4 0 D3 VDC_5 PMOS           
M_M5         D5 D5 D6 VDC_5 PMOS           
V_V1         VDC_5 0 0Vdc
M_M6         D6 D6 VDC_5 VDC_5 PMOS           
M_M7         D5 D5 0 0 NMOS           
M_M8         D4 D6 D9 0 NMOS           
M_M9         D9 IN_0 D12 0 NMOS           
M_M10         D10 D6 D11 0 NMOS           
M_M11         D11 IN_1 D12 0 NMOS           
M_M12         D12 D5 0 0 NMOS           
M_M1         D1 D1 VDC_5 VDC_5 PMOS           

**** RESUMING bias.cir ****
.END

ERROR -- Less than 2 connections at node IN_0
ERROR -- Less than 2 connections at node IN_1
ERROR -- Node IN_0 is floating
ERROR -- Node IN_1 is floating