
Circuit: * gnetlist -g spice-sdb -o testing.cir testing.sch

Error on line 124 : m.x2.m9 x2.11 v6 0 0 x2.nmos4 x2.l=3u w=1u
	Unable to find definition of model x2.nmos4 - default assumed 
	
	 unknown parameter (x2.l) 
Error on line 125 : m.x2.m8 x2.10 v5 x2.11 0 x2.nmos4 x2.l=3u w=1u
	Unable to find definition of model x2.nmos4 - default assumed 
	
	 unknown parameter (x2.l) 
Error on line 126 : m.x2.m7 x2.5 v4 x2.10 0 x2.nmos4 x2.l=3u w=1u
	Unable to find definition of model x2.nmos4 - default assumed 
	
	 unknown parameter (x2.l) 
Error on line 127 : m.x2.m6 out2 v5 vcc vcc x2.pmos4 x2.l=1u w=10u
	Unable to find definition of model x2.pmos4 - default assumed 
	
	 unknown parameter (x2.l) 
Error on line 128 : m.x2.m5 out2 v4 vcc vcc x2.pmos4 x2.l=1u w=10u
	Unable to find definition of model x2.pmos4 - default assumed 
	
	 unknown parameter (x2.l) 
Error on line 129 : m.x2.m4 out2 v3 vcc vcc x2.pmos4 x2.l=1u w=10u
	Unable to find definition of model x2.pmos4 - default assumed 
	
	 unknown parameter (x2.l) 
Error on line 130 : m.x2.m3 out2 v2 vcc vcc x2.pmos4 x2.l=1u w=10u
	Unable to find definition of model x2.pmos4 - default assumed 
	
	 unknown parameter (x2.l) 
Error on line 131 : m.x2.m2 x2.3 v3 x2.5 0 x2.nmos4 x2.l=3u w=1u
	Unable to find definition of model x2.nmos4 - default assumed 
	
	 unknown parameter (x2.l) 
Error on line 132 : m.x2.m1 out2 v2 x2.3 0 x2.nmos4 x2.l=3u w=1u
	Unable to find definition of model x2.nmos4 - default assumed 
	
	 unknown parameter (x2.l) 
Error on line 133 : m.x2.m10 out2 v6 vcc vcc x2.pmos4 x2.l=1u w=10u
	Unable to find definition of model x2.pmos4 - default assumed 
	
	 unknown parameter (x2.l) 
Error on line 91 : m.x5.m13 out5 v8 vcc vcc x5.pmos4 x5.l=1u w=10u
	Unable to find definition of model x5.pmos4 - default assumed 
	
	 unknown parameter (x5.l) 
Error on line 92 : m.x5.m12 x5.13 v8 0 0 x5.nmos4 x5.l=3u w=1u
	Unable to find definition of model x5.nmos4 - default assumed 
	
	 unknown parameter (x5.l) 
Error on line 93 : m.x5.m11 out5 v2 x5.1 0 x5.nmos4 x5.l=3u w=1u
	Unable to find definition of model x5.nmos4 - default assumed 
	
	 unknown parameter (x5.l) 
Error on line 94 : m.x5.m14 out5 v2 vcc vcc x5.pmos4 x5.l=1u w=10u
	Unable to find definition of model x5.pmos4 - default assumed 
	
	 unknown parameter (x5.l) 
Error on line 95 : m.x5.m9 x5.12 v7 x5.13 0 x5.nmos4 x5.l=3u w=1u
	Unable to find definition of model x5.nmos4 - default assumed 
	
	 unknown parameter (x5.l) 
Error on line 96 : m.x5.m8 x5.11 v6 x5.12 0 x5.nmos4 x5.l=3u w=1u
	Unable to find definition of model x5.nmos4 - default assumed 
	
	 unknown parameter (x5.l) 
Error on line 97 : m.x5.m7 x5.5 v5 x5.11 0 x5.nmos4 x5.l=3u w=1u
	Unable to find definition of model x5.nmos4 - default assumed 
	
	 unknown parameter (x5.l) 
Error on line 98 : m.x5.m6 out5 v6 vcc vcc x5.pmos4 x5.l=1u w=10u
	Unable to find definition of model x5.pmos4 - default assumed 
	
	 unknown parameter (x5.l) 
Error on line 99 : m.x5.m5 out5 v5 vcc vcc x5.pmos4 x5.l=1u w=10u
	Unable to find definition of model x5.pmos4 - default assumed 
	
	 unknown parameter (x5.l) 
Error on line 100 : m.x5.m4 out5 v4 vcc vcc x5.pmos4 x5.l=1u w=10u
	Unable to find definition of model x5.pmos4 - default assumed 
	
	 unknown parameter (x5.l) 
Error on line 101 : m.x5.m3 out5 v3 vcc vcc x5.pmos4 x5.l=1u w=10u
	Unable to find definition of model x5.pmos4 - default assumed 
	
	 unknown parameter (x5.l) 
Error on line 102 : m.x5.m2 x5.3 v4 x5.5 0 x5.nmos4 x5.l=3u w=1u
	Unable to find definition of model x5.nmos4 - default assumed 
	
	 unknown parameter (x5.l) 
Error on line 103 : m.x5.m1 x5.1 v3 x5.3 0 x5.nmos4 x5.l=3u w=1u
	Unable to find definition of model x5.nmos4 - default assumed 
	
	 unknown parameter (x5.l) 
Error on line 104 : m.x5.m10 out5 v7 vcc vcc x5.pmos4 x5.l=1u w=10u
	Unable to find definition of model x5.pmos4 - default assumed 
	
	 unknown parameter (x5.l) 
Error on line 68 : m.x4.m4 out4 v3 vcc vcc x4.pmos4 x4.l=1u w=10u
	Unable to find definition of model x4.pmos4 - default assumed 
	
	 unknown parameter (x4.l) 
Error on line 69 : m.x4.m3 out4 v2 vcc vcc x4.pmos4 x4.l=1u w=10u
	Unable to find definition of model x4.pmos4 - default assumed 
	
	 unknown parameter (x4.l) 
Error on line 70 : m.x4.m2 x4.3 v3 0 0 x4.nmos4 x4.l=3u w=1u
	Unable to find definition of model x4.nmos4 - default assumed 
	
	 unknown parameter (x4.l) 
Error on line 71 : m.x4.m1 out4 v2 x4.3 0 x4.nmos4 x4.l=3u w=1u
	Unable to find definition of model x4.nmos4 - default assumed 
	
	 unknown parameter (x4.l) 
Error on line 45 : m.x3.m8 x3.10 v5 0 0 x3.nmos4 x3.l=3u w=1u
	Unable to find definition of model x3.nmos4 - default assumed 
	
	 unknown parameter (x3.l) 
Error on line 46 : m.x3.m7 x3.5 v4 x3.10 0 x3.nmos4 x3.l=3u w=1u
	Unable to find definition of model x3.nmos4 - default assumed 
	
	 unknown parameter (x3.l) 
Error on line 47 : m.x3.m6 out3 v5 vcc vcc x3.pmos4 x3.l=1u w=10u
	Unable to find definition of model x3.pmos4 - default assumed 
	
	 unknown parameter (x3.l) 
Error on line 48 : m.x3.m5 out3 v4 vcc vcc x3.pmos4 x3.l=1u w=10u
	Unable to find definition of model x3.pmos4 - default assumed 
	
	 unknown parameter (x3.l) 
Error on line 49 : m.x3.m4 out3 v3 vcc vcc x3.pmos4 x3.l=1u w=10u
	Unable to find definition of model x3.pmos4 - default assumed 
	
	 unknown parameter (x3.l) 
Error on line 50 : m.x3.m3 out3 v2 vcc vcc x3.pmos4 x3.l=1u w=10u
	Unable to find definition of model x3.pmos4 - default assumed 
	
	 unknown parameter (x3.l) 
Error on line 51 : m.x3.m2 x3.3 v3 x3.5 0 x3.nmos4 x3.l=3u w=1u
	Unable to find definition of model x3.nmos4 - default assumed 
	
	 unknown parameter (x3.l) 
Error on line 52 : m.x3.m1 out3 v2 x3.3 0 x3.nmos4 x3.l=3u w=1u
	Unable to find definition of model x3.nmos4 - default assumed 
	
	 unknown parameter (x3.l) 
Doing analysis at TEMP = 27.000000 and TNOM = 27.000000


No. of Data Rows : 1

Doing analysis at TEMP = 27.000000 and TNOM = 27.000000


Initial Transient Solution
--------------------------

Node                                   Voltage
----                                   -------
v8                                           0
v7                                           0
out2                                    4.8844
v4                                           0
v3                                           0
x2.11                             -1.54536e-20
v6                                           0
x2.10                              6.44904e-21
v5                                           0
x2.5                               6.44904e-21
vcc                                          5
v2                                           0
x2.3                              -1.54536e-20
out5                                   4.89348
x5.13                             -1.69802e-20
x5.1                              -1.69802e-20
x5.12                              6.52651e-21
x5.11                             -1.48642e-22
x5.5                              -1.48643e-22
x5.3                               6.52651e-21
out4                                    4.8593
x4.3                              -8.57927e-21
x3.10                             -1.57113e-20
x3.5                               8.50976e-22
out3                                   4.87819
x3.3                              -1.57113e-20
out1                                         5
v5#branch                                    0
v2#branch                                    0
v6#branch                                    0
v1#branch                             -2.5e-05
v3#branch                                    0
v4#branch                                    0
v7#branch                                    0
v8#branch                                    0


No. of Data Rows : 130995

The file "vi2.ps" may be printed on a postscript printer.
The file "vi3.ps" may be printed on a postscript printer.
The file "vi4.ps" may be printed on a postscript printer.
The file "vi5.ps" may be printed on a postscript printer.
The file "vi6.ps" may be printed on a postscript printer.
The file "vi7.ps" may be printed on a postscript printer.
The file "vi8.ps" may be printed on a postscript printer.
