
Circuit: * gnetlist -g spice-sdb -o i-decoder-test.sch.cir i-decoder-test.sch

Doing analysis at TEMP = 27.000000 and TNOM = 27.000000


Initial Transient Solution
--------------------------

Node                                   Voltage
----                                   -------
nq1                                          5
q7                                           0
q2                                           0
q4                                           0
q3                                           0
ssb                                  0.0737998
lsb                                   0.154442
msb                                      5e-08
vcc                                          5
x1.1.5                                 4.99747
x1.1.x1.1.13                           3.72529
x1.1.x1.1.1                            4.00964
x1.1.x1.1.12                           3.74673
nq6                                          5
x1.1.x1.1.11                           3.77148
nq5                                          5
x1.1.x1.1.5                            3.80182
nq4                                          5
nq3                                          5
nq2                                          5
x1.1.x1.1.3                            3.84485
x1.1.6                                       5
x1.1.x2.1.13                         0.0792098
x1.1.x2.1.1                             4.5666
x1.1.x2.1.12                           0.64284
q6                                           0
x1.1.x2.1.11                           4.44287
q5                                           0
x1.1.x2.1.5                            4.46433
x1.1.x2.1.3                            4.49616
x1.1.x5.1.11                         0.0211743
x1.1.x5.1.10                         0.0528566
x1.1.x5.1.5                           0.142525
x1.1.1                                       5
x1.1.x5.1.3                            0.77471
x1.1.x8.1.10                          0.038235
x1.1.9                                       5
x1.1.x8.1.5                          0.0767143
x1.1.8                                       5
x1.1.x8.1.3                           0.115443
x1.1.x4.1.13                         0.0128069
q1                                           0
x1.1.x4.1.1                           0.800305
x1.1.x4.1.12                         0.0287676
x1.1.x4.1.11                         0.0499546
x1.1.x4.1.5                          0.0816566
x1.1.x4.1.3                           0.171154
x1.1.2                                 4.99366
x1.1.x6.1.3                             3.9668
nq7                                          5
x1.1.x7.1.3                          0.0368025
x1.1.x3.1.13                         0.0209415
x1.1.x3.1.1                            4.61465
x1.1.x3.1.12                         0.0520899
x1.1.x3.1.11                          0.133305
x1.1.x3.1.5                            0.70659
x1.1.x3.1.3                            4.55379
v5#branch                                    0
v6#branch                                    0
v12#branch                                   0
v13#branch                                   0
v9#branch                                    0
v1#branch                                    0
v14#branch                              -5e-08
v11#branch                                   0
v10#branch                                   0
v15#branch                        -0.000166312
v3#branch                                    0
v4#branch                                5e-05
v2#branch                                    0
v7#branch                                    0
v8#branch                                    0


No. of Data Rows : 34057

