
Circuit: * gnetlist -g spice-sdb -o i-flash-01.sch.cir i-flash-01.sch

Doing analysis at TEMP = 27.000000 and TNOM = 27.000000


Initial Transient Solution
--------------------------

Node                                   Voltage
----                                   -------
vcc                                          5
in-                                          2
out                                    4.96077
clck                                         0
d                                            0
x1.1.5                              0.00133695
x1.1.6                                0.256998
x1.1.9                              0.00113349
x1.1.1                                 4.89637
x1.1.4                                 3.86803
x1.1.3                                0.755855
v2#branch                                    0
v3#branch                                    0
v4#branch                                    0
v1#branch                         -4.27974e-05


No. of Data Rows : 220137

