
Circuit: * gnetlist -g spice-sdb -o i-flash-01.sch.cir i-flash-01.sch

Doing analysis at TEMP = 27.000000 and TNOM = 27.000000


Initial Transient Solution
--------------------------

Node                                   Voltage
----                                   -------
11                                    0.714286
9                                            1
x12.1.x2.2                         6.16954e-06
x12.1.6                               0.999981
vcc                                          1
x12.1.7                               0.999981
x12.1.x2.1                            0.739826
17                                           0
x12.1.1                               0.999998
nq3                                   0.999695
q3                                    0.127382
x12.1.x6.3                         5.41941e-05
x12.1.8                            8.98039e-05
x12.1.x5.3                         4.48969e-05
x12.1.x4.3                            0.123901
12                                 4.53891e-05
x12.1.x3.3                            0.739782
x12.1.x1.3                           0.0542456
nq5                                   0.999695
q2                                     0.99987
nq4                                   0.127353
16                                 2.24569e-05
x7.1.5                                0.999965
x7.1.6                             0.000286127
4                                          1.5
x7.1.9                             0.000254637
x7.1.1                             0.000458557
x7.1.4                               0.0146382
x7.1.3                                0.731571
2                                            2
15                                    0.142857
8                                  6.45116e-05
x3.1.5                                0.911607
x3.1.6                             0.000569063
x3.1.9                              2.9627e-07
x3.1.1                             0.000741153
x3.1.4                                0.910373
x3.1.3                             0.000974436
7                                      1.28571
x8.1.x2.2                          6.16954e-06
x8.1.6                                0.999981
x8.1.7                                0.999981
x8.1.x2.1                             0.739826
x8.1.1                                0.999998
nq7                                   0.999695
q7                                    0.127382
x8.1.x6.3                          5.41941e-05
x8.1.8                             8.98039e-05
x8.1.x5.3                          4.48969e-05
x8.1.x4.3                             0.123901
3                                  6.52631e-05
x8.1.x3.3                              0.73977
x8.1.x1.3                            0.0542456
q5                                    0.127382
nq6                                   0.999695
x13.1.x2.2                         6.16954e-06
x13.1.6                               0.999981
x13.1.7                               0.999981
x13.1.x2.1                            0.739826
x13.1.1                               0.999998
nq2                                   0.127353
x13.1.x6.3                           0.0541901
x13.1.8                            8.98039e-05
x13.1.x5.3                         4.48969e-05
x13.1.x4.3                            0.123901
14                                 2.28163e-05
x13.1.x3.3                            0.739796
x13.1.x1.3                             0.66198
10                                 6.27991e-05
x4.1.5                                0.913734
x4.1.6                             0.000567735
x4.1.9                              2.9727e-07
x4.1.1                             0.000739827
x4.1.4                                0.909809
x4.1.3                              0.00155526
q6                                    0.127382
5                                      1.57143
1                                      1.85714
18                                           2
13                                    0.428571
x14.1.x2.2                         6.16954e-06
x14.1.6                               0.999981
x14.1.7                               0.999981
x14.1.x2.1                            0.739826
x14.1.1                               0.999998
nq1                                   0.127353
q1                                     0.99987
x14.1.x6.3                           0.0541901
x14.1.8                            8.98039e-05
x14.1.x5.3                         4.48969e-05
x14.1.x4.3                            0.123901
x14.1.x3.3                            0.739796
x14.1.x1.3                            0.661979
x10.1.x2.2                         6.16954e-06
x10.1.6                               0.999981
x10.1.7                               0.999981
x10.1.x2.1                            0.739826
x10.1.1                               0.999998
x10.1.x6.3                         5.41941e-05
x10.1.8                            8.98039e-05
x10.1.x5.3                         4.48969e-05
x10.1.x4.3                            0.123901
x10.1.x3.3                             0.73977
x10.1.x1.3                           0.0542456
x9.1.x2.2                          6.16954e-06
x9.1.6                                0.999981
x9.1.7                                0.999981
x9.1.x2.1                             0.739826
x9.1.1                                0.999998
x9.1.x6.3                          5.41941e-05
x9.1.8                             8.98039e-05
x9.1.x5.3                          4.48969e-05
x9.1.x4.3                             0.123901
6                                  6.50181e-05
x9.1.x3.3                              0.73977
x9.1.x1.3                            0.0542456
x5.1.5                                0.939961
x5.1.6                             0.000532317
x5.1.9                             3.28794e-07
x5.1.1                             0.000704452
x5.1.4                                0.891434
x5.1.3                               0.0181507
x1.1.5                                0.910694
x1.1.6                             0.000569548
x1.1.9                             2.95907e-07
x1.1.1                             0.000741637
x1.1.4                                0.910576
x1.1.3                             0.000762867
x11.1.x2.2                         6.16954e-06
x11.1.6                               0.999981
x11.1.7                               0.999981
x11.1.x2.1                            0.739826
x11.1.1                               0.999998
q4                                     0.99987
x11.1.x6.3                           0.0541901
x11.1.8                            8.98039e-05
x11.1.x5.3                         4.48969e-05
x11.1.x4.3                            0.123901
x11.1.x3.3                            0.739771
x11.1.x1.3                            0.661979
x6.1.5                                0.998568
x6.1.6                             0.000305835
x6.1.9                             6.50171e-06
x6.1.1                             0.000478242
x6.1.4                                0.471634
x6.1.3                                0.326607
x2.1.5                                 0.91099
x2.1.6                             0.000569396
x2.1.9                             2.96021e-07
x2.1.1                             0.000741486
x2.1.4                                0.910513
x2.1.3                             0.000829026
v1#branch                         -2.85714e-05
v4#branch                         -6.13888e-05
v5#branch                                    0
v2#branch                                    0
v3#branch                                    0


No. of Data Rows : 34481

