
**** 03/24/10 17:54:39 ******* PSpice 16.0.0 (July 2006) ****** ID# 0 ********

 ** Profile: "TEST-bias"  [ D:\Documents\TESIS\fiocs\Design\I-DECODER-001\OrCAD\I-DECODER-6BITS\i-decoder-6bits-pspicefiles\test\bias


 ****     CIRCUIT DESCRIPTION


******************************************************************************




** Creating circuit file "bias.cir" 
** WARNING: THIS AUTOMATICALLY GENERATED FILE MAY BE OVERWRITTEN BY SUBSEQUENT SIMULATIONS

*Libraries: 
* Profile Libraries :
* Local Libraries :
.LIB "../../../i-decoder-6bits-pspicefiles/i-decoder-6bits.lib" 
.LIB "C:/OrCAD/OrCAD_16.0/tools/capture/library/pspice/BREAKOUT.OLB" 
* From [PSPICE NETLIST] section of C:\OrCAD\OrCAD_16.0\tools\PSpice\PSpice.ini file:
.lib "nom.lib" 

*Analysis directives: 
.PROBE V(alias(*)) I(alias(*)) W(alias(*)) D(alias(*)) NOISE(alias(*)) 
.INC "..\TEST.net" 



**** INCLUDING TEST.net ****
* source I-DECODER-6BITS
R_R5         MSB 2SB  100k  
M_U3_U31_M5         U3_N568171 MSB MSB MSB CMOSP  
+ L=.18u  
+ W=.2u         
M_U3_U31_M6         U3_N568171 MSB 0 0 CMOSN  
+ L=.18u  
+ W=.18u         
M_U3_U16_M5         U3_N565094 MSB MSB MSB CMOSP  
+ L=.18u  
+ W=.2u         
M_U3_U16_M6         U3_N565094 MSB 0 0 CMOSN  
+ L=.18u  
+ W=.18u         
M_U3_U91_M5         U3_N577856 U3_N578578 MSB MSB CMOSP  
+ L=.18u  
+ W=.2u         
M_U3_U91_M6         U3_N577856 U3_N578578 U3_U91_N39991 0 CMOSN  
+ L=.18u  
+ W=.18u         
M_U3_U91_M2         U3_U91_N39991 MSB 0 0 CMOSN  
+ L=.18u  
+ W=.18u         
M_U3_U91_M4         U3_N577856 MSB MSB MSB CMOSP  
+ L=.18u  
+ W=.2u         
M_U3_U65_M5         U3_N568485 U3_N7604009 MSB MSB CMOSP  
+ L=.18u  
+ W=.2u         
M_U3_U65_M6         U3_N568485 U3_N7604009 0 0 CMOSN  
+ L=.18u  
+ W=.18u         
M_U3_U2_M5         U3_-C32 MSB MSB MSB CMOSP  
+ L=.18u  
+ W=.2u         
M_U3_U2_M6         U3_-C32 MSB 0 0 CMOSN  
+ L=.18u  
+ W=.18u         
M_U3_U96_M5         U3_N577828 U3_N578514 MSB MSB CMOSP  
+ L=.18u  
+ W=.2u         
M_U3_U96_M6         U3_N577828 U3_N578514 U3_U96_N39991 0 CMOSN  
+ L=.18u  
+ W=.18u         
M_U3_U96_M2         U3_U96_N39991 MSB 0 0 CMOSN  
+ L=.18u  
+ W=.18u         
M_U3_U96_M4         U3_N577828 MSB MSB MSB CMOSP  
+ L=.18u  
+ W=.2u         
M_U3_U109_M5         U3_N573020 MSB MSB MSB CMOSP  
+ L=.18u  
+ W=.2u         
M_U3_U109_M6         U3_N573020 MSB 0 0 CMOSN  
+ L=.18u  
+ W=.18u         
M_U3_U57_M5         U3_N567883 U3_N567821 MSB MSB CMOSP  
+ L=.18u  
+ W=.2u         
M_U3_U57_M6         U3_N567883 U3_N567821 U3_U57_N39991 0 CMOSN  
+ L=.18u  
+ W=.18u         
M_U3_U57_M2         U3_U57_N39991 MSB 0 0 CMOSN  
+ L=.18u  
+ W=.18u         
M_U3_U57_M4         U3_N567883 MSB MSB MSB CMOSP  
+ L=.18u  
+ W=.2u         
M_U3_U28_M5         U3_N565380 U3_N565120 MSB MSB CMOSP  
+ L=.18u  
+ W=.2u         
M_U3_U28_M6         U3_N565380 U3_N565120 U3_U28_N39991 0 CMOSN  
+ L=.18u  
+ W=.18u         
M_U3_U28_M2         U3_U28_N39991 MSB 0 0 CMOSN  
+ L=.18u  
+ W=.18u         
M_U3_U28_M4         U3_N565380 MSB MSB MSB CMOSP  
+ L=.18u  
+ W=.2u         
M_U3_U139_M5         U3_N575374 X4 MSB MSB CMOSP  
+ L=.18u  
+ W=.2u         
M_U3_U139_M6         U3_N575374 X4 0 0 CMOSN  
+ L=.18u  
+ W=.18u         
M_U3_U74_M5         U3_N578674 MSB MSB MSB CMOSP  
+ L=.18u  
+ W=.2u         
M_U3_U74_M6         U3_N578674 MSB 0 0 CMOSN  
+ L=.18u  
+ W=.18u         
M_U3_U43_M5         U3_N567821 MSB MSB MSB CMOSP  
+ L=.18u  
+ W=.2u         
M_U3_U43_M6         U3_N567821 MSB 0 0 CMOSN  
+ L=.18u  
+ W=.18u         
M_U3_U80_M5         U3_N578524 MSB MSB MSB CMOSP  
+ L=.18u  
+ W=.2u         
M_U3_U80_M6         U3_N578524 MSB 0 0 CMOSN  
+ L=.18u  
+ W=.18u         
M_U3_U14_M5         U3_N565346 MSB MSB MSB CMOSP  
+ L=.18u  
+ W=.2u         
M_U3_U14_M6         U3_N565346 MSB 0 0 CMOSN  
+ L=.18u  
+ W=.18u         
M_U3_U136_M5         U3_N575328 X1 MSB MSB CMOSP  
+ L=.18u  
+ W=.2u         
M_U3_U136_M6         U3_N575328 X1 0 0 CMOSN  
+ L=.18u  
+ W=.18u         
M_U3_U124_M5         U3_N572214 U3_N572160 MSB MSB CMOSP  
+ L=.18u  
+ W=.2u         
M_U3_U124_M6         U3_N572214 U3_N572160 U3_U124_N39991 0 CMOSN  
+ L=.18u  
+ W=.18u         
M_U3_U124_M2         U3_U124_N39991 MSB 0 0 CMOSN  
+ L=.18u  
+ W=.18u         
M_U3_U124_M4         U3_N572214 MSB MSB MSB CMOSP  
+ L=.18u  
+ W=.2u         
M_U3_U116_M5         U3_N573096 MSB MSB MSB CMOSP  
+ L=.18u  
+ W=.2u         
M_U3_U116_M6         U3_N573096 MSB 0 0 CMOSN  
+ L=.18u  
+ W=.18u         
M_U3_U69_M5         U3_N578608 MSB MSB MSB CMOSP  
+ L=.18u  
+ W=.2u         
M_U3_U69_M6         U3_N578608 MSB 0 0 CMOSN  
+ L=.18u  
+ W=.18u         
M_U3_U86_M5         U3_N577748 U3_N578636 MSB MSB CMOSP  
+ L=.18u  
+ W=.2u         
M_U3_U86_M6         U3_N577748 U3_N578636 U3_U86_N39991 0 CMOSN  
+ L=.18u  
+ W=.18u         
M_U3_U86_M2         U3_U86_N39991 MSB 0 0 CMOSN  
+ L=.18u  
+ W=.18u         
M_U3_U86_M4         U3_N577748 MSB MSB MSB CMOSP  
+ L=.18u  
+ W=.2u         
M_U3_U26_M5         U3_N564842 U3_N565104 MSB MSB CMOSP  
+ L=.18u  
+ W=.2u         
M_U3_U26_M6         U3_N564842 U3_N565104 U3_U26_N39991 0 CMOSN  
+ L=.18u  
+ W=.18u         
M_U3_U26_M2         U3_U26_N39991 MSB 0 0 CMOSN  
+ L=.18u  
+ W=.18u         
M_U3_U26_M4         U3_N564842 MSB MSB MSB CMOSP  
+ L=.18u  
+ W=.2u         
M_U3_U103_M5         U3_N572104 MSB MSB MSB CMOSP  
+ L=.18u  
+ W=.2u         
M_U3_U103_M6         U3_N572104 MSB 0 0 CMOSN  
+ L=.18u  
+ W=.18u         
M_U3_U37_M5         U3_N568555 MSB MSB MSB CMOSP  
+ L=.18u  
+ W=.2u         
M_U3_U37_M6         U3_N568555 MSB 0 0 CMOSN  
+ L=.18u  
+ W=.18u         
M_U3_U61_M5         U3_N568303 U3_N567861 MSB MSB CMOSP  
+ L=.18u  
+ W=.2u         
M_U3_U61_M6         U3_N568303 U3_N567861 U3_U61_N39991 0 CMOSN  
+ L=.18u  
+ W=.18u         
M_U3_U61_M2         U3_U61_N39991 MSB 0 0 CMOSN  
+ L=.18u  
+ W=.18u         
M_U3_U61_M4         U3_N568303 MSB MSB MSB CMOSP  
+ L=.18u  
+ W=.2u         
M_U3_U119_M5         U3_N572186 U3_N572104 MSB MSB CMOSP  
+ L=.18u  
+ W=.2u         
M_U3_U119_M6         U3_N572186 U3_N572104 U3_U119_N39991 0 CMOSN  
+ L=.18u  
+ W=.18u         
M_U3_U119_M2         U3_U119_N39991 MSB 0 0 CMOSN  
+ L=.18u  
+ W=.18u         
M_U3_U119_M4         U3_N572186 MSB MSB MSB CMOSP  
+ L=.18u  
+ W=.2u         
M_U3_U48_M5         U3_N568271 U3_N568511 MSB MSB CMOSP  
+ L=.18u  
+ W=.2u         
M_U3_U48_M6         U3_N568271 U3_N568511 U3_U48_N39991 0 CMOSN  
+ L=.18u  
+ W=.18u         
M_U3_U48_M2         U3_U48_N39991 MSB 0 0 CMOSN  
+ L=.18u  
+ W=.18u         
M_U3_U48_M4         U3_N568271 MSB MSB MSB CMOSP  
+ L=.18u  
+ W=.2u         
M_U3_U64_M16         U3_N7604009 U3_N567883 MSB MSB CMOSP  
+ L=.18u  
+ W=.2u         
M_U3_U64_M5         U3_N7604009 U3_N568303 MSB MSB CMOSP  
+ L=.18u  
+ W=.2u         
M_U3_U64_M11         U3_N7604009 U3_N567441 MSB MSB CMOSP  
+ L=.18u  
+ W=.2u         
M_U3_U64_M9         U3_N7604009 U3_N568069 MSB MSB CMOSP  
+ L=.18u  
+ W=.2u         
M_U3_U64_M1         U3_N7604009 U3_N567441 U3_U64_N67495 0 CMOSN  
+ L=.18u  
+ W=.18u         
M_U3_U64_M6         U3_U64_N66385 U3_N567879 U3_U64_N66425 0 CMOSN  
+ L=.18u  
+ W=.18u         
M_U3_U64_M7         U3_U64_N66425 U3_N567883 U3_U64_N66937 0 CMOSN  
+ L=.18u  
+ W=.18u         
M_U3_U64_M12         U3_N7604009 U3_N568995 MSB MSB CMOSP  
+ L=.18u  
+ W=.2u         
M_U3_U64_M2         U3_U64_N67495 U3_N567415 U3_U64_N66385 0 CMOSN  
+ L=.18u  
+ W=.18u         
M_U3_U64_M13         U3_U64_N67207 U3_N568069 U3_U64_N67213 0 CMOSN  
+ L=.18u  
+ W=.18u         
M_U3_U64_M10         U3_U64_N66937 U3_N568995 U3_U64_N67207 0 CMOSN  
+ L=.18u  
+ W=.18u         
M_U3_U64_M3         U3_N7604009 U3_N567415 MSB MSB CMOSP  
+ L=.18u  
+ W=.2u         
M_U3_U64_M14         U3_U64_N67213 U3_N568185 U3_U64_N66527 0 CMOSN  
+ L=.18u  
+ W=.18u         
M_U3_U64_M8         U3_N7604009 U3_N568185 MSB MSB CMOSP  
+ L=.18u  
+ W=.2u         
M_U3_U64_M4         U3_N7604009 U3_N567879 MSB MSB CMOSP  
+ L=.18u  
+ W=.2u         
M_U3_U64_M15         U3_U64_N66527 U3_N568303 0 0 CMOSN  
+ L=.18u  
+ W=.18u         
M_U3_U52_M5         U3_N568231 U3_N568555 MSB MSB CMOSP  
+ L=.18u  
+ W=.2u         
M_U3_U52_M6         U3_N568231 U3_N568555 U3_U52_N39991 0 CMOSN  
+ L=.18u  
+ W=.18u         
M_U3_U52_M2         U3_U52_N39991 MSB 0 0 CMOSN  
+ L=.18u  
+ W=.18u         
M_U3_U52_M4         U3_N568231 MSB MSB MSB CMOSP  
+ L=.18u  
+ W=.2u         
M_U3_U108_M5         U3_N572160 MSB MSB MSB CMOSP  
+ L=.18u  
+ W=.2u         
M_U3_U108_M6         U3_N572160 MSB 0 0 CMOSN  
+ L=.18u  
+ W=.18u         
M_U3_U35_M5         U3_N568535 MSB MSB MSB CMOSP  
+ L=.18u  
+ W=.2u         
M_U3_U35_M6         U3_N568535 MSB 0 0 CMOSN  
+ L=.18u  
+ W=.18u         
M_U3_U24_M5         U3_N565404 U3_N565082 MSB MSB CMOSP  
+ L=.18u  
+ W=.2u         
M_U3_U24_M6         U3_N565404 U3_N565082 U3_U24_N39991 0 CMOSN  
+ L=.18u  
+ W=.18u         
M_U3_U24_M2         U3_U24_N39991 MSB 0 0 CMOSN  
+ L=.18u  
+ W=.18u         
M_U3_U24_M4         U3_N565404 MSB MSB MSB CMOSP  
+ L=.18u  
+ W=.2u         
M_U3_U135_M16         X4 U3_N572634 MSB MSB CMOSP  
+ L=.18u  
+ W=.2u         
M_U3_U135_M5         X4 U3_N572658 MSB MSB CMOSP  
+ L=.18u  
+ W=.2u         
M_U3_U135_M11         X4 U3_N572622 MSB MSB CMOSP  
+ L=.18u  
+ W=.2u         
M_U3_U135_M9         X4 U3_N572642 MSB MSB CMOSP  
+ L=.18u  
+ W=.2u         
M_U3_U135_M1         X4 U3_N572622 U3_U135_N67495 0 CMOSN  
+ L=.18u  
+ W=.18u         
M_U3_U135_M6         U3_U135_N66385 U3_N572630 U3_U135_N66425 0 CMOSN  
+ L=.18u  
+ W=.18u         
M_U3_U135_M7         U3_U135_N66425 U3_N572634 U3_U135_N66937 0 CMOSN  
+ L=.18u  
+ W=.18u         
M_U3_U135_M12         X4 U3_N572580 MSB MSB CMOSP  
+ L=.18u  
+ W=.2u         
M_U3_U135_M2         U3_U135_N67495 U3_N572626 U3_U135_N66385 0 CMOSN  
+ L=.18u  
+ W=.18u         
M_U3_U135_M13         U3_U135_N67207 U3_N572642 U3_U135_N67213 0 CMOSN  
+ L=.18u  
+ W=.18u         
M_U3_U135_M10         U3_U135_N66937 U3_N572580 U3_U135_N67207 0 CMOSN  
+ L=.18u  
+ W=.18u         
M_U3_U135_M3         X4 U3_N572626 MSB MSB CMOSP  
+ L=.18u  
+ W=.2u         
M_U3_U135_M14         U3_U135_N67213 U3_N572650 U3_U135_N66527 0 CMOSN  
+ L=.18u  
+ W=.18u         
M_U3_U135_M8         X4 U3_N572650 MSB MSB CMOSP  
+ L=.18u  
+ W=.2u         
M_U3_U135_M4         X4 U3_N572630 MSB MSB CMOSP  
+ L=.18u  
+ W=.2u         
M_U3_U135_M15         U3_U135_N66527 U3_N572658 0 0 CMOSN  
+ L=.18u  
+ W=.18u         
M_U3_U115_M5         U3_N573086 MSB MSB MSB CMOSP  
+ L=.18u  
+ W=.2u         
M_U3_U115_M6         U3_N573086 MSB 0 0 CMOSN  
+ L=.18u  
+ W=.18u         
M_U3_U90_M5         U3_N577760 U3_N578686 MSB MSB CMOSP  
+ L=.18u  
+ W=.2u         
M_U3_U90_M6         U3_N577760 U3_N578686 U3_U90_N39991 0 CMOSN  
+ L=.18u  
+ W=.18u         
M_U3_U90_M2         U3_U90_N39991 MSB 0 0 CMOSN  
+ L=.18u  
+ W=.18u         
M_U3_U90_M4         U3_N577760 MSB MSB MSB CMOSP  
+ L=.18u  
+ W=.2u         
M_U3_U95_M5         U3_N577832 U3_N578524 MSB MSB CMOSP  
+ L=.18u  
+ W=.2u         
M_U3_U95_M6         U3_N577832 U3_N578524 U3_U95_N39991 0 CMOSN  
+ L=.18u  
+ W=.18u         
M_U3_U95_M2         U3_U95_N39991 MSB 0 0 CMOSN  
+ L=.18u  
+ W=.18u         
M_U3_U95_M4         U3_N577832 MSB MSB MSB CMOSP  
+ L=.18u  
+ W=.2u         
M_U3_U133_M5         U3_N572622 U3_N573020 MSB MSB CMOSP  
+ L=.18u  
+ W=.2u         
M_U3_U133_M6         U3_N572622 U3_N573020 U3_U133_N39991 0 CMOSN  
+ L=.18u  
+ W=.18u         
M_U3_U133_M2         U3_U133_N39991 MSB 0 0 CMOSN  
+ L=.18u  
+ W=.18u         
M_U3_U133_M4         U3_N572622 MSB MSB MSB CMOSP  
+ L=.18u  
+ W=.2u         
M_U3_U79_M5         U3_N578534 MSB MSB MSB CMOSP  
+ L=.18u  
+ W=.2u         
M_U3_U79_M6         U3_N578534 MSB 0 0 CMOSN  
+ L=.18u  
+ W=.18u         
M_U3_U42_M5         U3_N567831 MSB MSB MSB CMOSP  
+ L=.18u  
+ W=.2u         
M_U3_U42_M6         U3_N567831 MSB 0 0 CMOSN  
+ L=.18u  
+ W=.18u         
M_U3_U73_M5         U3_N578662 MSB MSB MSB CMOSP  
+ L=.18u  
+ W=.2u         
M_U3_U73_M6         U3_N578662 MSB 0 0 CMOSN  
+ L=.18u  
+ W=.18u         
M_U3_U9_M5         U3_N259637 U3_N259543 MSB MSB CMOSP  
+ L=.18u  
+ W=.2u         
M_U3_U9_M6         U3_N259637 U3_N259543 U3_U9_N39991 0 CMOSN  
+ L=.18u  
+ W=.18u         
M_U3_U9_M2         U3_U9_N39991 MSB 0 0 CMOSN  
+ L=.18u  
+ W=.18u         
M_U3_U9_M4         U3_N259637 MSB MSB MSB CMOSP  
+ L=.18u  
+ W=.2u         
M_U3_U56_M5         U3_N567879 U3_N567811 MSB MSB CMOSP  
+ L=.18u  
+ W=.2u         
M_U3_U56_M6         U3_N567879 U3_N567811 U3_U56_N39991 0 CMOSN  
+ L=.18u  
+ W=.18u         
M_U3_U56_M2         U3_U56_N39991 MSB 0 0 CMOSN  
+ L=.18u  
+ W=.18u         
M_U3_U56_M4         U3_N567879 MSB MSB MSB CMOSP  
+ L=.18u  
+ W=.2u         
M_U3_U23_M5         3SB U3_N565340 MSB MSB CMOSP  
+ L=.18u  
+ W=.2u         
M_U3_U23_M6         3SB U3_N565340 0 0 CMOSN  
+ L=.18u  
+ W=.18u         
M_U3_U123_M5         U3_N572206 U3_N572144 MSB MSB CMOSP  
+ L=.18u  
+ W=.2u         
M_U3_U123_M6         U3_N572206 U3_N572144 U3_U123_N39991 0 CMOSN  
+ L=.18u  
+ W=.18u         
M_U3_U123_M2         U3_U123_N39991 MSB 0 0 CMOSN  
+ L=.18u  
+ W=.18u         
M_U3_U123_M4         U3_N572206 MSB MSB MSB CMOSP  
+ L=.18u  
+ W=.2u         
M_U3_U63_M16         U3_N567419 U3_N568285 MSB MSB CMOSP  
+ L=.18u  
+ W=.2u         
M_U3_U63_M5         U3_N567419 U3_N568189 MSB MSB CMOSP  
+ L=.18u  
+ W=.2u         
M_U3_U63_M11         U3_N567419 U3_N568171 MSB MSB CMOSP  
+ L=.18u  
+ W=.2u         
M_U3_U63_M9         U3_N567419 U3_N568243 MSB MSB CMOSP  
+ L=.18u  
+ W=.2u         
M_U3_U63_M1         U3_N567419 U3_N568171 U3_U63_N67495 0 CMOSN  
+ L=.18u  
+ W=.18u         
M_U3_U63_M6         U3_U63_N66385 U3_N568271 U3_U63_N66425 0 CMOSN  
+ L=.18u  
+ W=.18u         
M_U3_U63_M7         U3_U63_N66425 U3_N568285 U3_U63_N66937 0 CMOSN  
+ L=.18u  
+ W=.18u         
M_U3_U63_M12         U3_N567419 U3_N568251 MSB MSB CMOSP  
+ L=.18u  
+ W=.2u         
M_U3_U63_M2         U3_U63_N67495 U3_N568263 U3_U63_N66385 0 CMOSN  
+ L=.18u  
+ W=.18u         
M_U3_U63_M13         U3_U63_N67207 U3_N568243 U3_U63_N67213 0 CMOSN  
+ L=.18u  
+ W=.18u         
M_U3_U63_M10         U3_U63_N66937 U3_N568251 U3_U63_N67207 0 CMOSN  
+ L=.18u  
+ W=.18u         
M_U3_U63_M3         U3_N567419 U3_N568263 MSB MSB CMOSP  
+ L=.18u  
+ W=.2u         
M_U3_U63_M14         U3_U63_N67213 U3_N568231 U3_U63_N66527 0 CMOSN  
+ L=.18u  
+ W=.18u         
M_U3_U63_M8         U3_N567419 U3_N568231 MSB MSB CMOSP  
+ L=.18u  
+ W=.2u         
M_U3_U63_M4         U3_N567419 U3_N568271 MSB MSB CMOSP  
+ L=.18u  
+ W=.2u         
M_U3_U63_M15         U3_U63_N66527 U3_N568189 0 0 CMOSN  
+ L=.18u  
+ W=.18u         
M_U3_U21_M5         U3_N564924 MSB MSB MSB CMOSP  
+ L=.18u  
+ W=.2u         
M_U3_U21_M6         U3_N564924 MSB 0 0 CMOSN  
+ L=.18u  
+ W=.18u         
M_U3_U134_M16         X3 U3_N572190 MSB MSB CMOSP  
+ L=.18u  
+ W=.2u         
M_U3_U134_M5         X3 U3_N572214 MSB MSB CMOSP  
+ L=.18u  
+ W=.2u         
M_U3_U134_M11         X3 U3_N572170 MSB MSB CMOSP  
+ L=.18u  
+ W=.2u         
M_U3_U134_M9         X3 U3_N572198 MSB MSB CMOSP  
+ L=.18u  
+ W=.2u         
M_U3_U134_M1         X3 U3_N572170 U3_U134_N67495 0 CMOSN  
+ L=.18u  
+ W=.18u         
M_U3_U134_M6         U3_U134_N66385 U3_N572186 U3_U134_N66425 0 CMOSN  
+ L=.18u  
+ W=.18u         
M_U3_U134_M7         U3_U134_N66425 U3_N572190 U3_U134_N66937 0 CMOSN  
+ L=.18u  
+ W=.18u         
M_U3_U134_M12         X3 U3_N572512 MSB MSB CMOSP  
+ L=.18u  
+ W=.2u         
M_U3_U134_M2         U3_U134_N67495 U3_N572182 U3_U134_N66385 0 CMOSN  
+ L=.18u  
+ W=.18u         
M_U3_U134_M13         U3_U134_N67207 U3_N572198 U3_U134_N67213 0 CMOSN  
+ L=.18u  
+ W=.18u         
M_U3_U134_M10         U3_U134_N66937 U3_N572512 U3_U134_N67207 0 CMOSN  
+ L=.18u  
+ W=.18u         
M_U3_U134_M3         X3 U3_N572182 MSB MSB CMOSP  
+ L=.18u  
+ W=.2u         
M_U3_U134_M14         U3_U134_N67213 U3_N572206 U3_U134_N66527 0 CMOSN  
+ L=.18u  
+ W=.18u         
M_U3_U134_M8         X3 U3_N572206 MSB MSB CMOSP  
+ L=.18u  
+ W=.2u         
M_U3_U134_M4         X3 U3_N572186 MSB MSB CMOSP  
+ L=.18u  
+ W=.2u         
M_U3_U134_M15         U3_U134_N66527 U3_N572214 0 0 CMOSN  
+ L=.18u  
+ W=.18u         
M_U3_U3_M5         U3_N259565 MSB MSB MSB CMOSP  
+ L=.18u  
+ W=.2u         
M_U3_U3_M6         U3_N259565 MSB 0 0 CMOSN  
+ L=.18u  
+ W=.18u         
M_U3_U114_M5         U3_N573076 MSB MSB MSB CMOSP  
+ L=.18u  
+ W=.2u         
M_U3_U114_M6         U3_N573076 MSB 0 0 CMOSN  
+ L=.18u  
+ W=.18u         
M_U3_U6_M5         5SB U3_-C16 MSB MSB CMOSP  
+ L=.18u  
+ W=.2u         
M_U3_U6_M6         5SB U3_-C16 U3_U6_N39991 0 CMOSN  
+ L=.18u  
+ W=.18u         
M_U3_U6_M2         U3_U6_N39991 U3_N259199 0 0 CMOSN  
+ L=.18u  
+ W=.18u         
M_U3_U6_M4         5SB U3_N259199 MSB MSB CMOSP  
+ L=.18u  
+ W=.2u         
M_U3_U102_M5         U3_N572074 MSB MSB MSB CMOSP  
+ L=.18u  
+ W=.2u         
M_U3_U102_M6         U3_N572074 MSB 0 0 CMOSN  
+ L=.18u  
+ W=.18u         
M_U3_U36_M5         U3_N568545 MSB MSB MSB CMOSP  
+ L=.18u  
+ W=.2u         
M_U3_U36_M6         U3_N568545 MSB 0 0 CMOSN  
+ L=.18u  
+ W=.18u         
M_U3_U68_M5         U3_N577720 MSB MSB MSB CMOSP  
+ L=.18u  
+ W=.2u         
M_U3_U68_M6         U3_N577720 MSB 0 0 CMOSN  
+ L=.18u  
+ W=.18u         
M_U3_U85_M5         U3_N577736 U3_N578622 MSB MSB CMOSP  
+ L=.18u  
+ W=.2u         
M_U3_U85_M6         U3_N577736 U3_N578622 U3_U85_N39991 0 CMOSN  
+ L=.18u  
+ W=.18u         
M_U3_U85_M2         U3_U85_N39991 MSB 0 0 CMOSN  
+ L=.18u  
+ W=.18u         
M_U3_U85_M4         U3_N577736 MSB MSB MSB CMOSP  
+ L=.18u  
+ W=.2u         
M_U3_U107_M5         U3_N572144 MSB MSB MSB CMOSP  
+ L=.18u  
+ W=.2u         
M_U3_U107_M6         U3_N572144 MSB 0 0 CMOSN  
+ L=.18u  
+ W=.18u         
M_U3_U140_M7         LSB U3_N575328 MSB MSB CMOSP  
+ L=.18u  
+ W=.2u         
M_U3_U140_M8         LSB U3_N575362 MSB MSB CMOSP  
+ L=.18u  
+ W=.2u         
M_U3_U140_M12         LSB U3_N575374 MSB MSB CMOSP  
+ L=.18u  
+ W=.2u         
M_U3_U140_M9         LSB U3_N575382 MSB MSB CMOSP  
+ L=.18u  
+ W=.2u         
M_U3_U140_M1         LSB U3_N575328 U3_U140_N88766 0 CMOSN  
+ L=.18u  
+ W=.18u         
M_U3_U140_M10         U3_U140_N88906 U3_N575382 U3_U140_N88946 0 CMOSN  
+ L=.18u  
+ W=.18u         
M_U3_U140_M3         U3_U140_N88766 U3_N575362 U3_U140_N88906 0 CMOSN  
+ L=.18u  
+ W=.18u         
M_U3_U140_M11         U3_U140_N88946 U3_N575374 0 0 CMOSN  
+ L=.18u  
+ W=.18u         
M_U3_U78_M5         U3_N578552 MSB MSB MSB CMOSP  
+ L=.18u  
+ W=.2u         
M_U3_U78_M6         U3_N578552 MSB 0 0 CMOSN  
+ L=.18u  
+ W=.18u         
M_U3_U60_M5         U3_N568185 U3_N567851 MSB MSB CMOSP  
+ L=.18u  
+ W=.2u         
M_U3_U60_M6         U3_N568185 U3_N567851 U3_U60_N39991 0 CMOSN  
+ L=.18u  
+ W=.18u         
M_U3_U60_M2         U3_U60_N39991 MSB 0 0 CMOSN  
+ L=.18u  
+ W=.18u         
M_U3_U60_M4         U3_N568185 MSB MSB MSB CMOSP  
+ L=.18u  
+ W=.2u         
M_U3_U120_M5         U3_N572190 U3_N793529 MSB MSB CMOSP  
+ L=.18u  
+ W=.2u         
M_U3_U120_M6         U3_N572190 U3_N793529 U3_U120_N39991 0 CMOSN  
+ L=.18u  
+ W=.18u         
M_U3_U120_M2         U3_U120_N39991 MSB 0 0 CMOSN  
+ L=.18u  
+ W=.18u         
M_U3_U120_M4         U3_N572190 MSB MSB MSB CMOSP  
+ L=.18u  
+ W=.2u         
M_U3_U19_M5         U3_N565120 MSB MSB MSB CMOSP  
+ L=.18u  
+ W=.2u         
M_U3_U19_M6         U3_N565120 MSB 0 0 CMOSN  
+ L=.18u  
+ W=.18u         
M_U3_U41_M5         U3_N567841 MSB MSB MSB CMOSP  
+ L=.18u  
+ W=.2u         
M_U3_U41_M6         U3_N567841 MSB 0 0 CMOSN  
+ L=.18u  
+ W=.18u         
M_U3_U118_M5         U3_N572182 U3_N572074 MSB MSB CMOSP  
+ L=.18u  
+ W=.2u         
M_U3_U118_M6         U3_N572182 U3_N572074 U3_U118_N39991 0 CMOSN  
+ L=.18u  
+ W=.18u         
M_U3_U118_M2         U3_U118_N39991 MSB 0 0 CMOSN  
+ L=.18u  
+ W=.18u         
M_U3_U118_M4         U3_N572182 MSB MSB MSB CMOSP  
+ L=.18u  
+ W=.2u         
M_U3_U132_M5         U3_N572626 U3_N573036 MSB MSB CMOSP  
+ L=.18u  
+ W=.2u         
M_U3_U132_M6         U3_N572626 U3_N573036 U3_U132_N39991 0 CMOSN  
+ L=.18u  
+ W=.18u         
M_U3_U132_M2         U3_U132_N39991 MSB 0 0 CMOSN  
+ L=.18u  
+ W=.18u         
M_U3_U132_M4         U3_N572626 MSB MSB MSB CMOSP  
+ L=.18u  
+ W=.2u         
M_U3_U34_M5         U3_N568523 MSB MSB MSB CMOSP  
+ L=.18u  
+ W=.2u         
M_U3_U34_M6         U3_N568523 MSB 0 0 CMOSN  
+ L=.18u  
+ W=.18u         
M_U3_U137_M5         U3_N575362 X2 MSB MSB CMOSP  
+ L=.18u  
+ W=.2u         
M_U3_U137_M6         U3_N575362 X2 0 0 CMOSN  
+ L=.18u  
+ W=.18u         
M_U3_U94_M5         U3_N579510 U3_N578534 MSB MSB CMOSP  
+ L=.18u  
+ W=.2u         
M_U3_U94_M6         U3_N579510 U3_N578534 U3_U94_N39991 0 CMOSN  
+ L=.18u  
+ W=.18u         
M_U3_U94_M2         U3_U94_N39991 MSB 0 0 CMOSN  
+ L=.18u  
+ W=.18u         
M_U3_U94_M4         U3_N579510 MSB MSB MSB CMOSP  
+ L=.18u  
+ W=.2u         
M_U3_U51_M5         U3_N568243 U3_N568545 MSB MSB CMOSP  
+ L=.18u  
+ W=.2u         
M_U3_U51_M6         U3_N568243 U3_N568545 U3_U51_N39991 0 CMOSN  
+ L=.18u  
+ W=.18u         
M_U3_U51_M2         U3_U51_N39991 MSB 0 0 CMOSN  
+ L=.18u  
+ W=.18u         
M_U3_U51_M4         U3_N568243 MSB MSB MSB CMOSP  
+ L=.18u  
+ W=.2u         
M_U3_U89_M5         U3_N577772 U3_N578674 MSB MSB CMOSP  
+ L=.18u  
+ W=.2u         
M_U3_U89_M6         U3_N577772 U3_N578674 U3_U89_N39991 0 CMOSN  
+ L=.18u  
+ W=.18u         
M_U3_U89_M2         U3_U89_N39991 MSB 0 0 CMOSN  
+ L=.18u  
+ W=.18u         
M_U3_U89_M4         U3_N577772 MSB MSB MSB CMOSP  
+ L=.18u  
+ W=.2u         
M_U3_U47_M5         U3_N568263 U3_N568499 MSB MSB CMOSP  
+ L=.18u  
+ W=.2u         
M_U3_U47_M6         U3_N568263 U3_N568499 U3_U47_N39991 0 CMOSN  
+ L=.18u  
+ W=.18u         
M_U3_U47_M2         U3_U47_N39991 MSB 0 0 CMOSN  
+ L=.18u  
+ W=.18u         
M_U3_U47_M4         U3_N568263 MSB MSB MSB CMOSP  
+ L=.18u  
+ W=.2u         
M_U3_U72_M5         U3_N578650 MSB MSB MSB CMOSP  
+ L=.18u  
+ W=.2u         
M_U3_U72_M6         U3_N578650 MSB 0 0 CMOSN  
+ L=.18u  
+ W=.18u         
M_U3_U17_M5         U3_N565104 MSB MSB MSB CMOSP  
+ L=.18u  
+ W=.2u         
M_U3_U17_M6         U3_N565104 MSB 0 0 CMOSN  
+ L=.18u  
+ W=.18u         
M_U3_U113_M5         U3_N573066 MSB MSB MSB CMOSP  
+ L=.18u  
+ W=.2u         
M_U3_U113_M6         U3_N573066 MSB 0 0 CMOSN  
+ L=.18u  
+ W=.18u         
M_U3_U100_M16         X2 U3_N577832 MSB MSB CMOSP  
+ L=.18u  
+ W=.2u         
M_U3_U100_M5         X2 U3_N577856 MSB MSB CMOSP  
+ L=.18u  
+ W=.2u         
M_U3_U100_M11         X2 U3_N577814 MSB MSB CMOSP  
+ L=.18u  
+ W=.2u         
M_U3_U100_M9         X2 U3_N577840 MSB MSB CMOSP  
+ L=.18u  
+ W=.2u         
M_U3_U100_M1         X2 U3_N577814 U3_U100_N67495 0 CMOSN  
+ L=.18u  
+ W=.18u         
M_U3_U100_M6         U3_U100_N66385 U3_N577828 U3_U100_N66425 0 CMOSN  
+ L=.18u  
+ W=.18u         
M_U3_U100_M7         U3_U100_N66425 U3_N577832 U3_U100_N66937 0 CMOSN  
+ L=.18u  
+ W=.18u         
M_U3_U100_M12         X2 U3_N579510 MSB MSB CMOSP  
+ L=.18u  
+ W=.2u         
M_U3_U100_M2         U3_U100_N67495 U3_N577818 U3_U100_N66385 0 CMOSN  
+ L=.18u  
+ W=.18u         
M_U3_U100_M13         U3_U100_N67207 U3_N577840 U3_U100_N67213 0 CMOSN  
+ L=.18u  
+ W=.18u         
M_U3_U100_M10         U3_U100_N66937 U3_N579510 U3_U100_N67207 0 CMOSN  
+ L=.18u  
+ W=.18u         
M_U3_U100_M3         X2 U3_N577818 MSB MSB CMOSP  
+ L=.18u  
+ W=.2u         
M_U3_U100_M14         U3_U100_N67213 U3_N577848 U3_U100_N66527 0 CMOSN  
+ L=.18u  
+ W=.18u         
M_U3_U100_M8         X2 U3_N577848 MSB MSB CMOSP  
+ L=.18u  
+ W=.2u         
M_U3_U100_M4         X2 U3_N577828 MSB MSB CMOSP  
+ L=.18u  
+ W=.2u         
M_U3_U100_M15         U3_U100_N66527 U3_N577856 0 0 CMOSN  
+ L=.18u  
+ W=.18u         
M_U3_U55_M5         U3_N567415 U3_N567801 MSB MSB CMOSP  
+ L=.18u  
+ W=.2u         
M_U3_U55_M6         U3_N567415 U3_N567801 U3_U55_N39991 0 CMOSN  
+ L=.18u  
+ W=.18u         
M_U3_U55_M2         U3_U55_N39991 MSB 0 0 CMOSN  
+ L=.18u  
+ W=.18u         
M_U3_U55_M4         U3_N567415 MSB MSB MSB CMOSP  
+ L=.18u  
+ W=.2u         
M_U3_U29_M5         U3_N565368 U3_N565130 MSB MSB CMOSP  
+ L=.18u  
+ W=.2u         
M_U3_U29_M6         U3_N565368 U3_N565130 U3_U29_N39991 0 CMOSN  
+ L=.18u  
+ W=.18u         
M_U3_U29_M2         U3_U29_N39991 MSB 0 0 CMOSN  
+ L=.18u  
+ W=.18u         
M_U3_U29_M4         U3_N565368 MSB MSB MSB CMOSP  
+ L=.18u  
+ W=.2u         
M_U3_U127_M5         U3_N572642 U3_N573076 MSB MSB CMOSP  
+ L=.18u  
+ W=.2u         
M_U3_U127_M6         U3_N572642 U3_N573076 U3_U127_N39991 0 CMOSN  
+ L=.18u  
+ W=.18u         
M_U3_U127_M2         U3_U127_N39991 MSB 0 0 CMOSN  
+ L=.18u  
+ W=.18u         
M_U3_U127_M4         U3_N572642 MSB MSB MSB CMOSP  
+ L=.18u  
+ W=.2u         
M_U3_U122_M5         U3_N572198 U3_N572134 MSB MSB CMOSP  
+ L=.18u  
+ W=.2u         
M_U3_U122_M6         U3_N572198 U3_N572134 U3_U122_N39991 0 CMOSN  
+ L=.18u  
+ W=.18u         
M_U3_U122_M2         U3_U122_N39991 MSB 0 0 CMOSN  
+ L=.18u  
+ W=.18u         
M_U3_U122_M4         U3_N572198 MSB MSB MSB CMOSP  
+ L=.18u  
+ W=.2u         
M_U3_U106_M5         U3_N572134 MSB MSB MSB CMOSP  
+ L=.18u  
+ W=.2u         
M_U3_U106_M6         U3_N572134 MSB 0 0 CMOSN  
+ L=.18u  
+ W=.18u         
M_U3_U77_M5         U3_N578562 MSB MSB MSB CMOSP  
+ L=.18u  
+ W=.2u         
M_U3_U77_M6         U3_N578562 MSB 0 0 CMOSN  
+ L=.18u  
+ W=.18u         
M_U3_U15_M5         U3_N565082 MSB MSB MSB CMOSP  
+ L=.18u  
+ W=.2u         
M_U3_U15_M6         U3_N565082 MSB 0 0 CMOSN  
+ L=.18u  
+ W=.18u         
M_U3_U10_M5         U3_N259627 U3_N259605 MSB MSB CMOSP  
+ L=.18u  
+ W=.2u         
M_U3_U10_M6         U3_N259627 U3_N259605 U3_U10_N39991 0 CMOSN  
+ L=.18u  
+ W=.18u         
M_U3_U10_M2         U3_U10_N39991 MSB 0 0 CMOSN  
+ L=.18u  
+ W=.18u         
M_U3_U10_M4         U3_N259627 MSB MSB MSB CMOSP  
+ L=.18u  
+ W=.2u         
M_U3_U40_M5         U3_N567851 MSB MSB MSB CMOSP  
+ L=.18u  
+ W=.2u         
M_U3_U40_M6         U3_N567851 MSB 0 0 CMOSN  
+ L=.18u  
+ W=.18u         
M_U3_U131_M5         U3_N572630 U3_N573046 MSB MSB CMOSP  
+ L=.18u  
+ W=.2u         
M_U3_U131_M6         U3_N572630 U3_N573046 U3_U131_N39991 0 CMOSN  
+ L=.18u  
+ W=.18u         
M_U3_U131_M2         U3_U131_N39991 MSB 0 0 CMOSN  
+ L=.18u  
+ W=.18u         
M_U3_U131_M4         U3_N572630 MSB MSB MSB CMOSP  
+ L=.18u  
+ W=.2u         
M_U3_U101_M5         U3_N572064 MSB MSB MSB CMOSP  
+ L=.18u  
+ W=.2u         
M_U3_U101_M6         U3_N572064 MSB 0 0 CMOSN  
+ L=.18u  
+ W=.18u         
M_U3_U27_M5         U3_N565392 U3_N564920 MSB MSB CMOSP  
+ L=.18u  
+ W=.2u         
M_U3_U27_M6         U3_N565392 U3_N564920 U3_U27_N39991 0 CMOSN  
+ L=.18u  
+ W=.18u         
M_U3_U27_M2         U3_U27_N39991 MSB 0 0 CMOSN  
+ L=.18u  
+ W=.18u         
M_U3_U27_M4         U3_N565392 MSB MSB MSB CMOSP  
+ L=.18u  
+ W=.2u         
M_U3_U84_M5         U3_N577728 U3_N578608 MSB MSB CMOSP  
+ L=.18u  
+ W=.2u         
M_U3_U84_M6         U3_N577728 U3_N578608 U3_U84_N39991 0 CMOSN  
+ L=.18u  
+ W=.18u         
M_U3_U84_M2         U3_U84_N39991 MSB 0 0 CMOSN  
+ L=.18u  
+ W=.18u         
M_U3_U84_M4         U3_N577728 MSB MSB MSB CMOSP  
+ L=.18u  
+ W=.2u         
M_U3_U59_M5         U3_N568069 U3_N567841 MSB MSB CMOSP  
+ L=.18u  
+ W=.2u         
M_U3_U59_M6         U3_N568069 U3_N567841 U3_U59_N39991 0 CMOSN  
+ L=.18u  
+ W=.18u         
M_U3_U59_M2         U3_U59_N39991 MSB 0 0 CMOSN  
+ L=.18u  
+ W=.18u         
M_U3_U59_M4         U3_N568069 MSB MSB MSB CMOSP  
+ L=.18u  
+ W=.2u         
M_U3_U13_M16         U3_N565498 U3_N564842 MSB MSB CMOSP  
+ L=.18u  
+ W=.2u         
M_U3_U13_M5         U3_N565498 U3_N565360 MSB MSB CMOSP  
+ L=.18u  
+ W=.2u         
M_U3_U13_M11         U3_N565498 U3_N565346 MSB MSB CMOSP  
+ L=.18u  
+ W=.2u         
M_U3_U13_M9         U3_N565498 U3_N565380 MSB MSB CMOSP  
+ L=.18u  
+ W=.2u         
M_U3_U13_M1         U3_N565498 U3_N565346 U3_U13_N67495 0 CMOSN  
+ L=.18u  
+ W=.18u         
M_U3_U13_M6         U3_U13_N66385 U3_N565416 U3_U13_N66425 0 CMOSN  
+ L=.18u  
+ W=.18u         
M_U3_U13_M7         U3_U13_N66425 U3_N564842 U3_U13_N66937 0 CMOSN  
+ L=.18u  
+ W=.18u         
M_U3_U13_M12         U3_N565498 U3_N565392 MSB MSB CMOSP  
+ L=.18u  
+ W=.2u         
M_U3_U13_M2         U3_U13_N67495 U3_N565404 U3_U13_N66385 0 CMOSN  
+ L=.18u  
+ W=.18u         
M_U3_U13_M13         U3_U13_N67207 U3_N565380 U3_U13_N67213 0 CMOSN  
+ L=.18u  
+ W=.18u         
M_U3_U13_M10         U3_U13_N66937 U3_N565392 U3_U13_N67207 0 CMOSN  
+ L=.18u  
+ W=.18u         
M_U3_U13_M3         U3_N565498 U3_N565404 MSB MSB CMOSP  
+ L=.18u  
+ W=.2u         
M_U3_U13_M14         U3_U13_N67213 U3_N565368 U3_U13_N66527 0 CMOSN  
+ L=.18u  
+ W=.18u         
M_U3_U13_M8         U3_N565498 U3_N565368 MSB MSB CMOSP  
+ L=.18u  
+ W=.2u         
M_U3_U13_M4         U3_N565498 U3_N565416 MSB MSB CMOSP  
+ L=.18u  
+ W=.2u         
M_U3_U13_M15         U3_U13_N66527 U3_N565360 0 0 CMOSN  
+ L=.18u  
+ W=.18u         
M_U3_U112_M5         U3_N573056 MSB MSB MSB CMOSP  
+ L=.18u  
+ W=.2u         
M_U3_U112_M6         U3_N573056 MSB 0 0 CMOSN  
+ L=.18u  
+ W=.18u         
M_U3_U93_M5         U3_N577840 U3_N578552 MSB MSB CMOSP  
+ L=.18u  
+ W=.2u         
M_U3_U93_M6         U3_N577840 U3_N578552 U3_U93_N39991 0 CMOSN  
+ L=.18u  
+ W=.18u         
M_U3_U93_M2         U3_U93_N39991 MSB 0 0 CMOSN  
+ L=.18u  
+ W=.18u         
M_U3_U93_M4         U3_N577840 MSB MSB MSB CMOSP  
+ L=.18u  
+ W=.2u         
M_U3_U99_M16         X1 U3_N577748 MSB MSB CMOSP  
+ L=.18u  
+ W=.2u         
M_U3_U99_M5         X1 U3_N577760 MSB MSB CMOSP  
+ L=.18u  
+ W=.2u         
M_U3_U99_M11         X1 U3_N577720 MSB MSB CMOSP  
+ L=.18u  
+ W=.2u         
M_U3_U99_M9         X1 U3_N577784 MSB MSB CMOSP  
+ L=.18u  
+ W=.2u         
M_U3_U99_M1         X1 U3_N577720 U3_U99_N67495 0 CMOSN  
+ L=.18u  
+ W=.18u         
M_U3_U99_M6         U3_U99_N66385 U3_N577736 U3_U99_N66425 0 CMOSN  
+ L=.18u  
+ W=.18u         
M_U3_U99_M7         U3_U99_N66425 U3_N577748 U3_U99_N66937 0 CMOSN  
+ L=.18u  
+ W=.18u         
M_U3_U99_M12         X1 U3_N577796 MSB MSB CMOSP  
+ L=.18u  
+ W=.2u         
M_U3_U99_M2         U3_U99_N67495 U3_N577728 U3_U99_N66385 0 CMOSN  
+ L=.18u  
+ W=.18u         
M_U3_U99_M13         U3_U99_N67207 U3_N577784 U3_U99_N67213 0 CMOSN  
+ L=.18u  
+ W=.18u         
M_U3_U99_M10         U3_U99_N66937 U3_N577796 U3_U99_N67207 0 CMOSN  
+ L=.18u  
+ W=.18u         
M_U3_U99_M3         X1 U3_N577728 MSB MSB CMOSP  
+ L=.18u  
+ W=.2u         
M_U3_U99_M14         U3_U99_N67213 U3_N577772 U3_U99_N66527 0 CMOSN  
+ L=.18u  
+ W=.18u         
M_U3_U99_M8         X1 U3_N577772 MSB MSB CMOSP  
+ L=.18u  
+ W=.2u         
M_U3_U99_M4         X1 U3_N577736 MSB MSB CMOSP  
+ L=.18u  
+ W=.2u         
M_U3_U99_M15         U3_U99_N66527 U3_N577760 0 0 CMOSN  
+ L=.18u  
+ W=.18u         
M_U3_U117_M5         U3_N572170 U3_N572064 MSB MSB CMOSP  
+ L=.18u  
+ W=.2u         
M_U3_U117_M6         U3_N572170 U3_N572064 U3_U117_N39991 0 CMOSN  
+ L=.18u  
+ W=.18u         
M_U3_U117_M2         U3_U117_N39991 MSB 0 0 CMOSN  
+ L=.18u  
+ W=.18u         
M_U3_U117_M4         U3_N572170 MSB MSB MSB CMOSP  
+ L=.18u  
+ W=.2u         
M_U3_U33_M5         U3_N568511 MSB MSB MSB CMOSP  
+ L=.18u  
+ W=.2u         
M_U3_U33_M6         U3_N568511 MSB 0 0 CMOSN  
+ L=.18u  
+ W=.18u         
M_U3_U98_M5         U3_N577814 U3_N578480 MSB MSB CMOSP  
+ L=.18u  
+ W=.2u         
M_U3_U98_M6         U3_N577814 U3_N578480 U3_U98_N39991 0 CMOSN  
+ L=.18u  
+ W=.18u         
M_U3_U98_M2         U3_U98_N39991 MSB 0 0 CMOSN  
+ L=.18u  
+ W=.18u         
M_U3_U98_M4         U3_N577814 MSB MSB MSB CMOSP  
+ L=.18u  
+ W=.2u         
M_U3_U4_M5         U3_N259543 MSB MSB MSB CMOSP  
+ L=.18u  
+ W=.2u         
M_U3_U4_M6         U3_N259543 MSB 0 0 CMOSN  
+ L=.18u  
+ W=.18u         
M_U3_U46_M5         U3_N569141 MSB MSB MSB CMOSP  
+ L=.18u  
+ W=.2u         
M_U3_U46_M6         U3_N569141 MSB 0 0 CMOSN  
+ L=.18u  
+ W=.18u         
M_U3_U7_M5         U3_N259199 U3_-C32 MSB MSB CMOSP  
+ L=.18u  
+ W=.2u         
M_U3_U7_M6         U3_N259199 U3_-C32 U3_U7_N39991 0 CMOSN  
+ L=.18u  
+ W=.18u         
M_U3_U7_M2         U3_U7_N39991 MSB 0 0 CMOSN  
+ L=.18u  
+ W=.18u         
M_U3_U7_M4         U3_N259199 MSB MSB MSB CMOSP  
+ L=.18u  
+ W=.2u         
M_U3_U71_M5         U3_N578636 MSB MSB MSB CMOSP  
+ L=.18u  
+ W=.2u         
M_U3_U71_M6         U3_N578636 MSB 0 0 CMOSN  
+ L=.18u  
+ W=.18u         
M_U3_U88_M5         U3_N577784 U3_N578662 MSB MSB CMOSP  
+ L=.18u  
+ W=.2u         
M_U3_U88_M6         U3_N577784 U3_N578662 U3_U88_N39991 0 CMOSN  
+ L=.18u  
+ W=.18u         
M_U3_U88_M2         U3_U88_N39991 MSB 0 0 CMOSN  
+ L=.18u  
+ W=.18u         
M_U3_U88_M4         U3_N577784 MSB MSB MSB CMOSP  
+ L=.18u  
+ W=.2u         
M_U3_U25_M5         U3_N565416 U3_N565094 MSB MSB CMOSP  
+ L=.18u  
+ W=.2u         
M_U3_U25_M6         U3_N565416 U3_N565094 U3_U25_N39991 0 CMOSN  
+ L=.18u  
+ W=.18u         
M_U3_U25_M2         U3_U25_N39991 MSB 0 0 CMOSN  
+ L=.18u  
+ W=.18u         
M_U3_U25_M4         U3_N565416 MSB MSB MSB CMOSP  
+ L=.18u  
+ W=.2u         
M_U3_U50_M5         U3_N568251 U3_N568535 MSB MSB CMOSP  
+ L=.18u  
+ W=.2u         
M_U3_U50_M6         U3_N568251 U3_N568535 U3_U50_N39991 0 CMOSN  
+ L=.18u  
+ W=.18u         
M_U3_U50_M2         U3_U50_N39991 MSB 0 0 CMOSN  
+ L=.18u  
+ W=.18u         
M_U3_U50_M4         U3_N568251 MSB MSB MSB CMOSP  
+ L=.18u  
+ W=.2u         
M_U3_U76_M5         U3_N578578 MSB MSB MSB CMOSP  
+ L=.18u  
+ W=.2u         
M_U3_U76_M6         U3_N578578 MSB 0 0 CMOSN  
+ L=.18u  
+ W=.18u         
M_U3_U126_M5         U3_N572650 U3_N573086 MSB MSB CMOSP  
+ L=.18u  
+ W=.2u         
M_U3_U126_M6         U3_N572650 U3_N573086 U3_U126_N39991 0 CMOSN  
+ L=.18u  
+ W=.18u         
M_U3_U126_M2         U3_U126_N39991 MSB 0 0 CMOSN  
+ L=.18u  
+ W=.18u         
M_U3_U126_M4         U3_N572650 MSB MSB MSB CMOSP  
+ L=.18u  
+ W=.2u         
M_U3_U1_M5         U3_-C16 MSB MSB MSB CMOSP  
+ L=.18u  
+ W=.2u         
M_U3_U1_M6         U3_-C16 MSB 0 0 CMOSN  
+ L=.18u  
+ W=.18u         
M_U3_U105_M5         U3_N572124 MSB MSB MSB CMOSP  
+ L=.18u  
+ W=.2u         
M_U3_U105_M6         U3_N572124 MSB 0 0 CMOSN  
+ L=.18u  
+ W=.18u         
M_U3_U83_M5         U3_N578480 MSB MSB MSB CMOSP  
+ L=.18u  
+ W=.2u         
M_U3_U83_M6         U3_N578480 MSB 0 0 CMOSN  
+ L=.18u  
+ W=.18u         
M_U3_U54_M5         U3_N567441 U3_N569141 MSB MSB CMOSP  
+ L=.18u  
+ W=.2u         
M_U3_U54_M6         U3_N567441 U3_N569141 U3_U54_N39991 0 CMOSN  
+ L=.18u  
+ W=.18u         
M_U3_U54_M2         U3_U54_N39991 MSB 0 0 CMOSN  
+ L=.18u  
+ W=.18u         
M_U3_U54_M4         U3_N567441 MSB MSB MSB CMOSP  
+ L=.18u  
+ W=.2u         
M_U3_U12_M7         4SB U3_N259645 MSB MSB CMOSP  
+ L=.18u  
+ W=.2u         
M_U3_U12_M8         4SB U3_N259649 MSB MSB CMOSP  
+ L=.18u  
+ W=.2u         
M_U3_U12_M12         4SB U3_N259627 MSB MSB CMOSP  
+ L=.18u  
+ W=.2u         
M_U3_U12_M9         4SB U3_N259637 MSB MSB CMOSP  
+ L=.18u  
+ W=.2u         
M_U3_U12_M1         4SB U3_N259645 U3_U12_N88766 0 CMOSN  
+ L=.18u  
+ W=.18u         
M_U3_U12_M10         U3_U12_N88906 U3_N259637 U3_U12_N88946 0 CMOSN  
+ L=.18u  
+ W=.18u         
M_U3_U12_M3         U3_U12_N88766 U3_N259649 U3_U12_N88906 0 CMOSN  
+ L=.18u  
+ W=.18u         
M_U3_U12_M11         U3_U12_N88946 U3_N259627 0 0 CMOSN  
+ L=.18u  
+ W=.18u         
M_U3_U138_M5         U3_N575382 X3 MSB MSB CMOSP  
+ L=.18u  
+ W=.2u         
M_U3_U138_M6         U3_N575382 X3 0 0 CMOSN  
+ L=.18u  
+ W=.18u         
M_U3_U121_M5         U3_N572512 U3_N572124 MSB MSB CMOSP  
+ L=.18u  
+ W=.2u         
M_U3_U121_M6         U3_N572512 U3_N572124 U3_U121_N39991 0 CMOSN  
+ L=.18u  
+ W=.18u         
M_U3_U121_M2         U3_U121_N39991 MSB 0 0 CMOSN  
+ L=.18u  
+ W=.18u         
M_U3_U121_M4         U3_N572512 MSB MSB MSB CMOSP  
+ L=.18u  
+ W=.2u         
M_U3_U111_M5         U3_N573046 MSB MSB MSB CMOSP  
+ L=.18u  
+ W=.2u         
M_U3_U111_M6         U3_N573046 MSB 0 0 CMOSN  
+ L=.18u  
+ W=.18u         
M_U3_U130_M5         U3_N572634 U3_N573056 MSB MSB CMOSP  
+ L=.18u  
+ W=.2u         
M_U3_U130_M6         U3_N572634 U3_N573056 U3_U130_N39991 0 CMOSN  
+ L=.18u  
+ W=.18u         
M_U3_U130_M2         U3_U130_N39991 MSB 0 0 CMOSN  
+ L=.18u  
+ W=.18u         
M_U3_U130_M4         U3_N572634 MSB MSB MSB CMOSP  
+ L=.18u  
+ W=.2u         
M_U3_U39_M5         U3_N567861 MSB MSB MSB CMOSP  
+ L=.18u  
+ W=.2u         
M_U3_U39_M6         U3_N567861 MSB 0 0 CMOSN  
+ L=.18u  
+ W=.18u         
M_U3_U45_M5         U3_N567801 MSB MSB MSB CMOSP  
+ L=.18u  
+ W=.2u         
M_U3_U45_M6         U3_N567801 MSB 0 0 CMOSN  
+ L=.18u  
+ W=.18u         
M_U3_U22_M5         U3_N565340 U3_N565498 MSB MSB CMOSP  
+ L=.18u  
+ W=.2u         
M_U3_U22_M6         U3_N565340 U3_N565498 0 0 CMOSN  
+ L=.18u  
+ W=.18u         
M_U3_U92_M5         U3_N577848 U3_N578562 MSB MSB CMOSP  
+ L=.18u  
+ W=.2u         
M_U3_U92_M6         U3_N577848 U3_N578562 U3_U92_N39991 0 CMOSN  
+ L=.18u  
+ W=.18u         
M_U3_U92_M2         U3_U92_N39991 MSB 0 0 CMOSN  
+ L=.18u  
+ W=.18u         
M_U3_U92_M4         U3_N577848 MSB MSB MSB CMOSP  
+ L=.18u  
+ W=.2u         
M_U3_U58_M5         U3_N568995 U3_N567831 MSB MSB CMOSP  
+ L=.18u  
+ W=.2u         
M_U3_U58_M6         U3_N568995 U3_N567831 U3_U58_N39991 0 CMOSN  
+ L=.18u  
+ W=.18u         
M_U3_U58_M2         U3_U58_N39991 MSB 0 0 CMOSN  
+ L=.18u  
+ W=.18u         
M_U3_U58_M4         U3_N568995 MSB MSB MSB CMOSP  
+ L=.18u  
+ W=.2u         
M_U3_U97_M5         U3_N577818 U3_N578504 MSB MSB CMOSP  
+ L=.18u  
+ W=.2u         
M_U3_U97_M6         U3_N577818 U3_N578504 U3_U97_N39991 0 CMOSN  
+ L=.18u  
+ W=.18u         
M_U3_U97_M2         U3_U97_N39991 MSB 0 0 CMOSN  
+ L=.18u  
+ W=.18u         
M_U3_U97_M4         U3_N577818 MSB MSB MSB CMOSP  
+ L=.18u  
+ W=.2u         
M_U3_U82_M5         U3_N578504 MSB MSB MSB CMOSP  
+ L=.18u  
+ W=.2u         
M_U3_U82_M6         U3_N578504 MSB 0 0 CMOSN  
+ L=.18u  
+ W=.18u         
M_U3_U20_M5         U3_N565130 MSB MSB MSB CMOSP  
+ L=.18u  
+ W=.2u         
M_U3_U20_M6         U3_N565130 MSB 0 0 CMOSN  
+ L=.18u  
+ W=.18u         
M_U3_U32_M5         U3_N568499 MSB MSB MSB CMOSP  
+ L=.18u  
+ W=.2u         
M_U3_U32_M6         U3_N568499 MSB 0 0 CMOSN  
+ L=.18u  
+ W=.18u         
M_U3_U75_M5         U3_N578686 MSB MSB MSB CMOSP  
+ L=.18u  
+ W=.2u         
M_U3_U75_M6         U3_N578686 MSB 0 0 CMOSN  
+ L=.18u  
+ W=.18u         
M_U3_U70_M5         U3_N578622 MSB MSB MSB CMOSP  
+ L=.18u  
+ W=.2u         
M_U3_U70_M6         U3_N578622 MSB 0 0 CMOSN  
+ L=.18u  
+ W=.18u         
M_U3_U87_M5         U3_N577796 U3_N578650 MSB MSB CMOSP  
+ L=.18u  
+ W=.2u         
M_U3_U87_M6         U3_N577796 U3_N578650 U3_U87_N39991 0 CMOSN  
+ L=.18u  
+ W=.18u         
M_U3_U87_M2         U3_U87_N39991 MSB 0 0 CMOSN  
+ L=.18u  
+ W=.18u         
M_U3_U87_M4         U3_N577796 MSB MSB MSB CMOSP  
+ L=.18u  
+ W=.2u         
M_U3_U110_M5         U3_N573036 MSB MSB MSB CMOSP  
+ L=.18u  
+ W=.2u         
M_U3_U110_M6         U3_N573036 MSB 0 0 CMOSN  
+ L=.18u  
+ W=.18u         
M_U3_U125_M5         U3_N572658 U3_N573096 MSB MSB CMOSP  
+ L=.18u  
+ W=.2u         
M_U3_U125_M6         U3_N572658 U3_N573096 U3_U125_N39991 0 CMOSN  
+ L=.18u  
+ W=.18u         
M_U3_U125_M2         U3_U125_N39991 MSB 0 0 CMOSN  
+ L=.18u  
+ W=.18u         
M_U3_U125_M4         U3_N572658 MSB MSB MSB CMOSP  
+ L=.18u  
+ W=.2u         
M_U3_U67_M5         U3_N567401 U3_N567419 MSB MSB CMOSP  
+ L=.18u  
+ W=.2u         
M_U3_U67_M6         U3_N567401 U3_N567419 0 0 CMOSN  
+ L=.18u  
+ W=.18u         
M_U3_U11_M5         U3_N259645 MSB MSB MSB CMOSP  
+ L=.18u  
+ W=.2u         
M_U3_U11_M6         U3_N259645 MSB 0 0 CMOSN  
+ L=.18u  
+ W=.18u         
M_U3_U49_M5         U3_N568285 U3_N568523 MSB MSB CMOSP  
+ L=.18u  
+ W=.2u         
M_U3_U49_M6         U3_N568285 U3_N568523 U3_U49_N39991 0 CMOSN  
+ L=.18u  
+ W=.18u         
M_U3_U49_M2         U3_U49_N39991 MSB 0 0 CMOSN  
+ L=.18u  
+ W=.18u         
M_U3_U49_M4         U3_N568285 MSB MSB MSB CMOSP  
+ L=.18u  
+ W=.2u         
M_U3_U104_M5         U3_N793529 MSB MSB MSB CMOSP  
+ L=.18u  
+ W=.2u         
M_U3_U104_M6         U3_N793529 MSB 0 0 CMOSN  
+ L=.18u  
+ W=.18u         
M_U3_U18_M5         U3_N564920 MSB MSB MSB CMOSP  
+ L=.18u  
+ W=.2u         
M_U3_U18_M6         U3_N564920 MSB 0 0 CMOSN  
+ L=.18u  
+ W=.18u         
M_U3_U129_M5         U3_N572580 U3_N573066 MSB MSB CMOSP  
+ L=.18u  
+ W=.2u         
M_U3_U129_M6         U3_N572580 U3_N573066 U3_U129_N39991 0 CMOSN  
+ L=.18u  
+ W=.18u         
M_U3_U129_M2         U3_U129_N39991 MSB 0 0 CMOSN  
+ L=.18u  
+ W=.18u         
M_U3_U129_M4         U3_N572580 MSB MSB MSB CMOSP  
+ L=.18u  
+ W=.2u         
M_U3_U44_M5         U3_N567811 MSB MSB MSB CMOSP  
+ L=.18u  
+ W=.2u         
M_U3_U44_M6         U3_N567811 MSB 0 0 CMOSN  
+ L=.18u  
+ W=.18u         
M_U3_U38_M5         U3_N568565 MSB MSB MSB CMOSP  
+ L=.18u  
+ W=.2u         
M_U3_U38_M6         U3_N568565 MSB 0 0 CMOSN  
+ L=.18u  
+ W=.18u         
M_U3_U53_M5         U3_N568189 U3_N568565 MSB MSB CMOSP  
+ L=.18u  
+ W=.2u         
M_U3_U53_M6         U3_N568189 U3_N568565 U3_U53_N39991 0 CMOSN  
+ L=.18u  
+ W=.18u         
M_U3_U53_M2         U3_U53_N39991 MSB 0 0 CMOSN  
+ L=.18u  
+ W=.18u         
M_U3_U53_M4         U3_N568189 MSB MSB MSB CMOSP  
+ L=.18u  
+ W=.2u         
M_U3_U8_M5         U3_N259649 U3_N259565 MSB MSB CMOSP  
+ L=.18u  
+ W=.2u         
M_U3_U8_M6         U3_N259649 U3_N259565 U3_U8_N39991 0 CMOSN  
+ L=.18u  
+ W=.18u         
M_U3_U8_M2         U3_U8_N39991 MSB 0 0 CMOSN  
+ L=.18u  
+ W=.18u         
M_U3_U8_M4         U3_N259649 MSB MSB MSB CMOSP  
+ L=.18u  
+ W=.2u         
M_U3_U62_M5         2SB U3_N568485 MSB MSB CMOSP  
+ L=.18u  
+ W=.2u         
M_U3_U62_M6         2SB U3_N568485 U3_U62_N39991 0 CMOSN  
+ L=.18u  
+ W=.18u         
M_U3_U62_M2         U3_U62_N39991 U3_N567401 0 0 CMOSN  
+ L=.18u  
+ W=.18u         
M_U3_U62_M4         2SB U3_N567401 MSB MSB CMOSP  
+ L=.18u  
+ W=.2u         
M_U3_U5_M5         U3_N259605 MSB MSB MSB CMOSP  
+ L=.18u  
+ W=.2u         
M_U3_U5_M6         U3_N259605 MSB 0 0 CMOSN  
+ L=.18u  
+ W=.18u         
M_U3_U81_M5         U3_N578514 MSB MSB MSB CMOSP  
+ L=.18u  
+ W=.2u         
M_U3_U81_M6         U3_N578514 MSB 0 0 CMOSN  
+ L=.18u  
+ W=.18u         
M_U3_U30_M5         U3_N565360 U3_N564924 MSB MSB CMOSP  
+ L=.18u  
+ W=.2u         
M_U3_U30_M6         U3_N565360 U3_N564924 U3_U30_N39991 0 CMOSN  
+ L=.18u  
+ W=.18u         
M_U3_U30_M2         U3_U30_N39991 MSB 0 0 CMOSN  
+ L=.18u  
+ W=.18u         
M_U3_U30_M4         U3_N565360 MSB MSB MSB CMOSP  
+ L=.18u  
+ W=.2u         
R_R6         MSB LSB  100k  
R_R1         MSB MSB  100k  
V_V1         MSB 0 3.3
R_R2         MSB 5SB  100k  
R_R3         MSB 4SB  100k  
R_R4         MSB 3SB  100k  

**** RESUMING bias.cir ****
.END

WARNING -- Library file D:\Documents\TESIS\fiocs\Design\I-DECODER-001\OrCAD\I-DECODER-6BITS\i-decoder-6bits-pspicefiles\i-decoder-6bits.lib has changed since index file i-decoder-6bits.ind was created.
WARNING -- The timestamp changed from Sat Mar 20 13:52:27 2010 to Wed Mar 24 17:53:58 2010.
Making new index file i-decoder-6bits.ind for library file i-decoder-6bits.lib
Index has 2 entries from 1 file(s).

Mosfet M_U3_U31_M5, model CMOSP: Using BSIM VERSION 3.1 or lower
WARNING -- Mosfet M_U3_U31_M5, model CMOSP: Pd = 0 is less than W
WARNING -- Mosfet M_U3_U31_M5, model CMOSP: Ps = 0 is less than W
Mosfet M_U3_U31_M6, model CMOSN: Using BSIM VERSION 3.1 or lower
WARNING -- Mosfet M_U3_U31_M6, model CMOSN: Pd = 0 is less than W
WARNING -- Mosfet M_U3_U31_M6, model CMOSN: Ps = 0 is less than W
**** 03/24/10 17:54:39 ******* PSpice 16.0.0 (July 2006) ****** ID# 0 ********

 ** Profile: "TEST-bias"  [ D:\Documents\TESIS\fiocs\Design\I-DECODER-001\OrCAD\I-DECODER-6BITS\i-decoder-6bits-pspicefiles\test\bias


 ****     MOSFET MODEL PARAMETERS


******************************************************************************




               CMOSP           CMOSN           
               PMOS            NMOS            
  T_Measured   27              27            
   T_Current   27              27            
       LEVEL    7               7            
           L  100.000000E-06  100.000000E-06 
           W  100.000000E-06  100.000000E-06 
         VTO    -.413091         .294194     
          KP  460.419200E-06  460.419200E-06 
       GAMMA    0               0            
      LAMBDA    0               0            
         RSH    5.9             6.2          
          IS    1.000000E-15    1.000000E-15 
          JS  100.000000E-06  100.000000E-06 
          PB     .821464         .99         
        PBSW     .8008           .8          
          CJ    1.165977E-03  815.244000E-06 
        CJSW  122.005600E-12  165.796200E-12 
          MJ     .425655         .610228     
        MJSW     .1001           .163262     
        CGSO  500.000000E-12  500.000000E-12 
        CGDO  500.000000E-12  500.000000E-12 
        CGBO    1.000000E-12    1.000000E-12 
         TOX    4.500000E-09    4.500000E-09 
          XJ  100.000000E-09  100.000000E-09 
       UCRIT   10.000000E+03   10.000000E+03 
       DELTA     .01             .01         
      DIOMOD    2               2            
          K1     .59909          .541355     
          K2 -669.794000E-09    -.032332     
        LETA    0               0            
        WETA    0               0            
          U0  118.3014        269.8792       
       XPART     .5              .5          
        VTH0    -.413091         .294194     
          K3     .080859        1.000406E-03 
          W0    1.000000E-06  100.000000E-09 
         NLX   25.530790E-09  206.491900E-09 
        DVT0     .819884         .565214     
        DVT1     .744212         .260305     
          UA    1.535614E-09   -1.619209E-09 
          UB    1.000000E-21    2.953688E-18 
          UC -100.000000E-12   57.637850E-12 
        VSAT  173.454300E+03  106.504000E+03 
        RDSW  677.8533        150            
        VOFF    -.142681        -.09299      
     NFACTOR     .94145         2.044734     
        PCLM     .334199        1.968647     
      PDIBL1     .132793        1            
      PDIBL2    9.825629E-03    -.072042     
       DROUT     .81589         1            
      PSCBE1    3.057881E+09    2.350722E+09 
      PSCBE2    5.892816E-09  508.313600E-12 
          A0     .926787        1.425322     
          A1     .01033          .023731     
          A2     .752154         .550469     
       NPEAK  415.890000E+15  235.490000E+15 
         LDD    0               0            
        LITL   36.742350E-09   36.742350E-09 
         UC1  -56.000000E-12  -56.000000E-12 
        PVAG     .122566                     
        KETA     .022875        -.016685     
        ETA0    1.263659E-03    6.051176E-03 
        ETAB   -2.195822E-03 -858.512600E-06 
         K3B   19.71403         5.01511      
        DVT2    -.3             -.067374     
        DSUB    4.891602E-03    3.642935E-03 
         AGS     .166834         .37123      
       DVT1W    0               0            
       DVT2W    0               0            
        PRWG    -.054897         .34061      
        PRWB    -.5             -.183689     
     PDIBLCB   -1.000000E-03    -.1          
         DWG  -25.031010E-09    5.313945E-09 
         DWB  -12.379610E-09   13.440770E-09 
          B0    1.874426E-06  -23.699750E-09 
          B1    5.000000E-06                 
        LINT   27.788770E-09   20.673220E-09 
        WINT                   12.447730E-09 
         DLC   27.788770E-09   20.673220E-09 
         DWC    0              12.447730E-09 
          CF    0               0            
        NOIA    9.900001E+18  100.000000E+18 
        NOIB    2.400000E+03   50.000000E+03 
        NOIC    1.400000E-12   -1.400000E-12 
       LKETA    -.010867      399.601500E-06 
       WKETA     .03239         3.401938E-03 
       PVSAT   50             790.3922       
       PKETA   -6.167985E-03    -.014873     
       PVTH0    1.001339E-03   -4.814415E-03 
         PUA  362.786900E-12  -31.414400E-12 
         PU0    7.380991       -4.028575     
       PRDSW   -5              -2.504635     
       PETA0  100.000000E-06  -67.588480E-06 
         PK2   30.964830E-06    3.159047E-03 
         VTM     .025864         .025864     
       PBSWG     .8008           .8          
       MJSWG     .1001           .163262     
       CJSWG  422.000000E-12  330.000000E-12 


Mosfet M_U3_U31_M5, model CMOSP: Using BSIM VERSION 3.1 or lower
WARNING -- Mosfet M_U3_U31_M5, model CMOSP: Pd = 0 is less than W
WARNING -- Mosfet M_U3_U31_M5, model CMOSP: Ps = 0 is less than W
Mosfet M_U3_U31_M6, model CMOSN: Using BSIM VERSION 3.1 or lower
WARNING -- Mosfet M_U3_U31_M6, model CMOSN: Pd = 0 is less than W
WARNING -- Mosfet M_U3_U31_M6, model CMOSN: Ps = 0 is less than W
**** 03/24/10 17:54:39 ******* PSpice 16.0.0 (July 2006) ****** ID# 0 ********

 ** Profile: "TEST-bias"  [ D:\Documents\TESIS\fiocs\Design\I-DECODER-001\OrCAD\I-DECODER-6BITS\i-decoder-6bits-pspicefiles\test\bias


 ****     SMALL SIGNAL BIAS SOLUTION       TEMPERATURE =   27.000 DEG C


******************************************************************************



 NODE   VOLTAGE     NODE   VOLTAGE     NODE   VOLTAGE     NODE   VOLTAGE


(   X1)    3.3000  (   X2) 15.04E-06  (   X3) 15.04E-06  (   X4) 15.04E-06      

(  2SB)    3.3000  (  3SB)    3.3000  (  4SB)    3.3000  (  5SB)    3.3000      

(  LSB)    3.3000  (  MSB)    3.3000  (U3_-C16) 234.9E-09                       

(U3_-C32) 234.9E-09                   (U3_N259199)    3.3000                    

(U3_N259543) 234.9E-09                (U3_N259565) 234.9E-09                    

(U3_N259605) 234.9E-09                (U3_N259627)    3.3000                    

(U3_N259637)    3.3000                (U3_N259645) 234.9E-09                    

(U3_N259649)    3.3000                (U3_N564842)    3.3000                    

(U3_N564920) 234.9E-09                (U3_N564924) 234.9E-09                    

(U3_N565082) 234.9E-09                (U3_N565094) 234.9E-09                    

(U3_N565104) 234.9E-09                (U3_N565120) 234.9E-09                    

(U3_N565130) 234.9E-09                (U3_N565340) 235.0E-09                    

(U3_N565346) 234.9E-09                (U3_N565360)    3.3000                    

(U3_N565368)    3.3000                (U3_N565380)    3.3000                    

(U3_N565392)    3.3000                (U3_N565404)    3.3000                    

(U3_N565416)    3.3000                (U3_N565498)    3.3000                    

(U3_N567401) 235.0E-09                (U3_N567415)    3.3000                    

(U3_N567419)    3.3000                (U3_N567441)    3.3000                    

(U3_N567801) 234.9E-09                (U3_N567811) 234.9E-09                    

(U3_N567821) 234.9E-09                (U3_N567831) 234.9E-09                    

(U3_N567841) 234.9E-09                (U3_N567851) 234.9E-09                    

(U3_N567861) 234.9E-09                (U3_N567879)    3.3000                    

(U3_N567883)    3.3000                (U3_N568069)    3.3000                    

(U3_N568171) 234.9E-09                (U3_N568185)    3.3000                    

(U3_N568189)    3.3000                (U3_N568231)    3.3000                    

(U3_N568243)    3.3000                (U3_N568251)    3.3000                    

(U3_N568263)    3.3000                (U3_N568271)    3.3000                    

(U3_N568285)    3.3000                (U3_N568303)    3.3000                    

(U3_N568485)    3.3000                (U3_N568499) 234.9E-09                    

(U3_N568511) 234.9E-09                (U3_N568523) 234.9E-09                    

(U3_N568535) 234.9E-09                (U3_N568545) 234.9E-09                    

(U3_N568555) 234.9E-09                (U3_N568565) 234.9E-09                    

(U3_N568995)    3.3000                (U3_N569141) 234.9E-09                    

(U3_N572064) 234.9E-09                (U3_N572074) 234.9E-09                    

(U3_N572104) 234.9E-09                (U3_N572124) 234.9E-09                    

(U3_N572134) 234.9E-09                (U3_N572144) 234.9E-09                    

(U3_N572160) 234.9E-09                (U3_N572170)    3.3000                    

(U3_N572182)    3.3000                (U3_N572186)    3.3000                    

(U3_N572190)    3.3000                (U3_N572198)    3.3000                    

(U3_N572206)    3.3000                (U3_N572214)    3.3000                    

(U3_N572512)    3.3000                (U3_N572580)    3.3000                    

(U3_N572622)    3.3000                (U3_N572626)    3.3000                    

(U3_N572630)    3.3000                (U3_N572634)    3.3000                    

(U3_N572642)    3.3000                (U3_N572650)    3.3000                    

(U3_N572658)    3.3000                (U3_N573020) 234.9E-09                    

(U3_N573036) 234.9E-09                (U3_N573046) 234.9E-09                    

(U3_N573056) 234.9E-09                (U3_N573066) 234.9E-09                    

(U3_N573076) 234.9E-09                (U3_N573086) 234.9E-09                    

(U3_N573096) 234.9E-09                (U3_N575328) 235.0E-09                    

(U3_N575362)    3.3000                (U3_N575374)    3.3000                    

(U3_N575382)    3.3000                (U3_N577720) 234.9E-09                    

(U3_N577728)    3.3000                (U3_N577736)    3.3000                    

(U3_N577748)    3.3000                (U3_N577760)    3.3000                    

(U3_N577772)    3.3000                (U3_N577784)    3.3000                    

(U3_N577796)    3.3000                (U3_N577814)    3.3000                    

(U3_N577818)    3.3000                (U3_N577828)    3.3000                    

(U3_N577832)    3.3000                (U3_N577840)    3.3000                    

(U3_N577848)    3.3000                (U3_N577856)    3.3000                    

(U3_N578480) 234.9E-09                (U3_N578504) 234.9E-09                    

(U3_N578514) 234.9E-09                (U3_N578524) 234.9E-09                    

(U3_N578534) 234.9E-09                (U3_N578552) 234.9E-09                    

(U3_N578562) 234.9E-09                (U3_N578578) 234.9E-09                    

(U3_N578608) 234.9E-09                (U3_N578622) 234.9E-09                    

(U3_N578636) 234.9E-09                (U3_N578650) 234.9E-09                    

(U3_N578662) 234.9E-09                (U3_N578674) 234.9E-09                    

(U3_N578686) 234.9E-09                (U3_N579510)    3.3000                    

(U3_N793529) 234.9E-09                (U3_N7604009) 15.04E-06                   

(U3_U6_N39991) 2.241E-06              (U3_U7_N39991) 2.241E-06                  

(U3_U8_N39991) 2.241E-06              (U3_U9_N39991) 2.241E-06                  

(U3_U10_N39991) 2.241E-06             (U3_U12_N88766) 6.722E-06                 

(U3_U12_N88906) 4.481E-06             (U3_U12_N88946) 2.241E-06                 

(U3_U13_N66385) 13.44E-06             (U3_U13_N66425) 11.20E-06                 

(U3_U13_N66527) 2.240E-06             (U3_U13_N66937) 8.960E-06                 

(U3_U13_N67207) 6.720E-06             (U3_U13_N67213) 4.480E-06                 

(U3_U13_N67495) 15.68E-06             (U3_U24_N39991) 2.241E-06                 

(U3_U25_N39991) 2.241E-06             (U3_U26_N39991) 2.241E-06                 

(U3_U27_N39991) 2.241E-06             (U3_U28_N39991) 2.241E-06                 

(U3_U29_N39991) 2.241E-06             (U3_U30_N39991) 2.241E-06                 

(U3_U47_N39991) 2.241E-06             (U3_U48_N39991) 2.241E-06                 

(U3_U49_N39991) 2.241E-06             (U3_U50_N39991) 2.241E-06                 

(U3_U51_N39991) 2.241E-06             (U3_U52_N39991) 2.241E-06                 

(U3_U53_N39991) 2.241E-06             (U3_U54_N39991) 2.241E-06                 

(U3_U55_N39991) 2.241E-06             (U3_U56_N39991) 2.241E-06                 

(U3_U57_N39991) 2.241E-06             (U3_U58_N39991) 2.241E-06                 

(U3_U59_N39991) 2.241E-06             (U3_U60_N39991) 2.241E-06                 

(U3_U61_N39991) 2.241E-06             (U3_U62_N39991)    2.7365                 

(U3_U63_N66385) 13.44E-06             (U3_U63_N66425) 11.20E-06                 

(U3_U63_N66527) 2.240E-06             (U3_U63_N66937) 8.960E-06                 

(U3_U63_N67207) 6.720E-06             (U3_U63_N67213) 4.480E-06                 

(U3_U63_N67495) 15.68E-06             (U3_U64_N66385) 11.28E-06                 

(U3_U64_N66425) 9.399E-06             (U3_U64_N66527) 1.880E-06                 

(U3_U64_N66937) 7.520E-06             (U3_U64_N67207) 5.640E-06                 

(U3_U64_N67213) 3.760E-06             (U3_U64_N67495) 13.16E-06                 

(U3_U84_N39991) 2.241E-06             (U3_U85_N39991) 2.241E-06                 

(U3_U86_N39991) 2.241E-06             (U3_U87_N39991) 2.241E-06                 

(U3_U88_N39991) 2.241E-06             (U3_U89_N39991) 2.241E-06                 

(U3_U90_N39991) 2.241E-06             (U3_U91_N39991) 2.241E-06                 

(U3_U92_N39991) 2.241E-06             (U3_U93_N39991) 2.241E-06                 

(U3_U94_N39991) 2.241E-06             (U3_U95_N39991) 2.241E-06                 

(U3_U96_N39991) 2.241E-06             (U3_U97_N39991) 2.241E-06                 

(U3_U98_N39991) 2.241E-06             (U3_U99_N66385) 13.44E-06                 

(U3_U99_N66425) 11.20E-06             (U3_U99_N66527) 2.240E-06                 

(U3_U99_N66937) 8.960E-06             (U3_U99_N67207) 6.720E-06                 

(U3_U99_N67213) 4.480E-06             (U3_U99_N67495) 15.68E-06                 

(U3_U100_N66385) 11.28E-06            (U3_U100_N66425) 9.399E-06                

(U3_U100_N66527) 1.880E-06            (U3_U100_N66937) 7.520E-06                

(U3_U100_N67207) 5.640E-06            (U3_U100_N67213) 3.760E-06                

(U3_U100_N67495) 13.16E-06            (U3_U117_N39991) 2.241E-06                

(U3_U118_N39991) 2.241E-06            (U3_U119_N39991) 2.241E-06                

(U3_U120_N39991) 2.241E-06            (U3_U121_N39991) 2.241E-06                

(U3_U122_N39991) 2.241E-06            (U3_U123_N39991) 2.241E-06                

(U3_U124_N39991) 2.241E-06            (U3_U125_N39991) 2.241E-06                

(U3_U126_N39991) 2.241E-06            (U3_U127_N39991) 2.241E-06                

(U3_U129_N39991) 2.241E-06            (U3_U130_N39991) 2.241E-06                

(U3_U131_N39991) 2.241E-06            (U3_U132_N39991) 2.241E-06                

(U3_U133_N39991) 2.241E-06            (U3_U134_N66385) 11.28E-06                

(U3_U134_N66425) 9.399E-06            (U3_U134_N66527) 1.880E-06                

(U3_U134_N66937) 7.520E-06            (U3_U134_N67207) 5.640E-06                

(U3_U134_N67213) 3.760E-06            (U3_U134_N67495) 13.16E-06                

(U3_U135_N66385) 11.28E-06            (U3_U135_N66425) 9.399E-06                

(U3_U135_N66527) 1.880E-06            (U3_U135_N66937) 7.520E-06                

(U3_U135_N67207) 5.640E-06            (U3_U135_N67213) 3.760E-06                

(U3_U135_N67495) 13.16E-06            (U3_U140_N88766) 6.722E-06                

(U3_U140_N88906) 4.481E-06            (U3_U140_N88946) 2.241E-06            




    VOLTAGE SOURCE CURRENTS
    NAME         CURRENT

    V_V1        -6.159E-08

    TOTAL POWER DISSIPATION   2.03E-07  WATTS



          JOB CONCLUDED

**** 03/24/10 17:54:39 ******* PSpice 16.0.0 (July 2006) ****** ID# 0 ********

 ** Profile: "TEST-bias"  [ D:\Documents\TESIS\fiocs\Design\I-DECODER-001\OrCAD\I-DECODER-6BITS\i-decoder-6bits-pspicefiles\test\bias


 ****     JOB STATISTICS SUMMARY


******************************************************************************



  Total job time (using Solver 1)   =        2.54
