
**** 03/22/10 19:20:39 ******* PSpice 16.0.0 (July 2006) ****** ID# 0 ********

 ** Profile: "NDECODER-64-prueba"  [ D:\Documents\TESIS\fiocs\Design\I-DECODER-001\OrCAD\I-DECODER-6BITS\i-decoder-6bits-pspicefiles\


 ****     CIRCUIT DESCRIPTION


******************************************************************************




** Creating circuit file "prueba.cir" 
** WARNING: THIS AUTOMATICALLY GENERATED FILE MAY BE OVERWRITTEN BY SUBSEQUENT SIMULATIONS

*Libraries: 
* Profile Libraries :
* Local Libraries :
.LIB "../../../i-decoder-6bits-pspicefiles/i-decoder-6bits.lib" 
* From [PSPICE NETLIST] section of C:\OrCAD\OrCAD_16.0\tools\PSpice\PSpice.ini file:
.lib "nom.lib" 

*Analysis directives: 
.TRAN  0 15u 0 0.001u 
.PROBE V(alias(*)) I(alias(*)) W(alias(*)) D(alias(*)) NOISE(alias(*)) 
.INC "..\NDECODER-64.net" 



**** INCLUDING NDECODER-64.net ****
* source I-DECODER-6BITS
R_R4         3SB MSB  100k  
R_R5         2SB MSB  100k  
R_R6         LSB MSB  100k  
M_U5_U78_M5         U5_N312976 X3 MSB MSB CMOSP  
+ L=.18u  
+ W=.2u         
M_U5_U78_M6         U5_N312976 X3 0 0 CMOSN  
+ L=.18u  
+ W=.18u         
M_U5_U32_M5         U5_N265636 0 MSB MSB CMOSP  
+ L=.18u  
+ W=.2u         
M_U5_U32_M6         U5_N265636 0 U5_U32_N39991 0 CMOSN  
+ L=.18u  
+ W=.18u         
M_U5_U32_M2         U5_U32_N39991 MSB 0 0 CMOSN  
+ L=.18u  
+ W=.18u         
M_U5_U32_M4         U5_N265636 MSB MSB MSB CMOSP  
+ L=.18u  
+ W=.2u         
M_U5_U4_M5         U5_N245622 0 MSB MSB CMOSP  
+ L=.18u  
+ W=.2u         
M_U5_U4_M6         U5_N245622 0 U5_U4_N39991 0 CMOSN  
+ L=.18u  
+ W=.18u         
M_U5_U4_M2         U5_U4_N39991 MSB 0 0 CMOSN  
+ L=.18u  
+ W=.18u         
M_U5_U4_M4         U5_N245622 MSB MSB MSB CMOSP  
+ L=.18u  
+ W=.2u         
M_U5_U68_M5         U5_N312290 0 MSB MSB CMOSP  
+ L=.18u  
+ W=.2u         
M_U5_U68_M6         U5_N312290 0 U5_U68_N39991 0 CMOSN  
+ L=.18u  
+ W=.18u         
M_U5_U68_M2         U5_U68_N39991 MSB 0 0 CMOSN  
+ L=.18u  
+ W=.18u         
M_U5_U68_M4         U5_N312290 MSB MSB MSB CMOSP  
+ L=.18u  
+ W=.2u         
M_U5_U15_M5         U5_N246462 0 MSB MSB CMOSP  
+ L=.18u  
+ W=.2u         
M_U5_U15_M6         U5_N246462 0 U5_U15_N39991 0 CMOSN  
+ L=.18u  
+ W=.18u         
M_U5_U15_M2         U5_U15_N39991 MSB 0 0 CMOSN  
+ L=.18u  
+ W=.18u         
M_U5_U15_M4         U5_N246462 MSB MSB MSB CMOSP  
+ L=.18u  
+ W=.2u         
M_U5_U56_M5         U5_N309055 0 MSB MSB CMOSP  
+ L=.18u  
+ W=.2u         
M_U5_U56_M6         U5_N309055 0 U5_U56_N39991 0 CMOSN  
+ L=.18u  
+ W=.18u         
M_U5_U56_M2         U5_U56_N39991 MSB 0 0 CMOSN  
+ L=.18u  
+ W=.18u         
M_U5_U56_M4         U5_N309055 MSB MSB MSB CMOSP  
+ L=.18u  
+ W=.2u         
M_U5_U75_M16         U5_X4 U5_N312302 MSB MSB CMOSP  
+ L=.18u  
+ W=.2u         
M_U5_U75_M5         U5_X4 U5_N312326 MSB MSB CMOSP  
+ L=.18u  
+ W=.2u         
M_U5_U75_M11         U5_X4 U5_N312290 MSB MSB CMOSP  
+ L=.18u  
+ W=.2u         
M_U5_U75_M9         U5_X4 U5_N312310 MSB MSB CMOSP  
+ L=.18u  
+ W=.2u         
M_U5_U75_M1         U5_X4 U5_N312290 U5_U75_N67495 0 CMOSN  
+ L=.18u  
+ W=.18u         
M_U5_U75_M6         U5_U75_N66385 U5_N312298 U5_U75_N66425 0 CMOSN  
+ L=.18u  
+ W=.18u         
M_U5_U75_M7         U5_U75_N66425 U5_N312302 U5_U75_N66937 0 CMOSN  
+ L=.18u  
+ W=.18u         
M_U5_U75_M12         U5_X4 U5_N312618 MSB MSB CMOSP  
+ L=.18u  
+ W=.2u         
M_U5_U75_M2         U5_U75_N67495 U5_N312294 U5_U75_N66385 0 CMOSN  
+ L=.18u  
+ W=.18u         
M_U5_U75_M13         U5_U75_N67207 U5_N312310 U5_U75_N67213 0 CMOSN  
+ L=.18u  
+ W=.18u         
M_U5_U75_M10         U5_U75_N66937 U5_N312618 U5_U75_N67207 0 CMOSN  
+ L=.18u  
+ W=.18u         
M_U5_U75_M3         U5_X4 U5_N312294 MSB MSB CMOSP  
+ L=.18u  
+ W=.2u         
M_U5_U75_M14         U5_U75_N67213 U5_N312318 U5_U75_N66527 0 CMOSN  
+ L=.18u  
+ W=.18u         
M_U5_U75_M8         U5_X4 U5_N312318 MSB MSB CMOSP  
+ L=.18u  
+ W=.2u         
M_U5_U75_M4         U5_X4 U5_N312298 MSB MSB CMOSP  
+ L=.18u  
+ W=.2u         
M_U5_U75_M15         U5_U75_N66527 U5_N312326 0 0 CMOSN  
+ L=.18u  
+ W=.18u         
M_U5_U49_M16         X1 U5_N308739 MSB MSB CMOSP  
+ L=.18u  
+ W=.2u         
M_U5_U49_M5         X1 U5_N308767 MSB MSB CMOSP  
+ L=.18u  
+ W=.2u         
M_U5_U49_M11         X1 -V1 MSB MSB CMOSP  
+ L=.18u  
+ W=.2u         
M_U5_U49_M9         X1 U5_N308811 MSB MSB CMOSP  
+ L=.18u  
+ W=.2u         
M_U5_U49_M1         X1 -V1 U5_U49_N67495 0 CMOSN  
+ L=.18u  
+ W=.18u         
M_U5_U49_M6         U5_U49_N66385 U5_N308687 U5_U49_N66425 0 CMOSN  
+ L=.18u  
+ W=.18u         
M_U5_U49_M7         U5_U49_N66425 U5_N308739 U5_U49_N66937 0 CMOSN  
+ L=.18u  
+ W=.18u         
M_U5_U49_M12         X1 U5_N308919 MSB MSB CMOSP  
+ L=.18u  
+ W=.2u         
M_U5_U49_M2         U5_U49_N67495 U5_N308675 U5_U49_N66385 0 CMOSN  
+ L=.18u  
+ W=.18u         
M_U5_U49_M13         U5_U49_N67207 U5_N308811 U5_U49_N67213 0 CMOSN  
+ L=.18u  
+ W=.18u         
M_U5_U49_M10         U5_U49_N66937 U5_N308919 U5_U49_N67207 0 CMOSN  
+ L=.18u  
+ W=.18u         
M_U5_U49_M3         X1 U5_N308675 MSB MSB CMOSP  
+ L=.18u  
+ W=.2u         
M_U5_U49_M14         U5_U49_N67213 U5_N308789 U5_U49_N66527 0 CMOSN  
+ L=.18u  
+ W=.18u         
M_U5_U49_M8         X1 U5_N308789 MSB MSB CMOSP  
+ L=.18u  
+ W=.2u         
M_U5_U49_M4         X1 U5_N308687 MSB MSB CMOSP  
+ L=.18u  
+ W=.2u         
M_U5_U49_M15         U5_U49_N66527 U5_N308767 0 0 CMOSN  
+ L=.18u  
+ W=.18u         
M_U5_U33_M5         U5_N265640 0 MSB MSB CMOSP  
+ L=.18u  
+ W=.2u         
M_U5_U33_M6         U5_N265640 0 U5_U33_N39991 0 CMOSN  
+ L=.18u  
+ W=.18u         
M_U5_U33_M2         U5_U33_N39991 MSB 0 0 CMOSN  
+ L=.18u  
+ W=.18u         
M_U5_U33_M4         U5_N265640 MSB MSB MSB CMOSP  
+ L=.18u  
+ W=.2u         
M_U5_U3_M5         5SB 0 MSB MSB CMOSP  
+ L=.18u  
+ W=.2u         
M_U5_U3_M6         5SB 0 U5_U3_N39991 0 CMOSN  
+ L=.18u  
+ W=.18u         
M_U5_U3_M2         U5_U3_N39991 U5_N245880 0 0 CMOSN  
+ L=.18u  
+ W=.18u         
M_U5_U3_M4         5SB U5_N245880 MSB MSB CMOSP  
+ L=.18u  
+ W=.2u         
M_U5_U5_M5         U5_N245638 0 MSB MSB CMOSP  
+ L=.18u  
+ W=.2u         
M_U5_U5_M6         U5_N245638 0 U5_U5_N39991 0 CMOSN  
+ L=.18u  
+ W=.18u         
M_U5_U5_M2         U5_U5_N39991 MSB 0 0 CMOSN  
+ L=.18u  
+ W=.18u         
M_U5_U5_M4         U5_N245638 MSB MSB MSB CMOSP  
+ L=.18u  
+ W=.2u         
M_U5_U69_M5         U5_N312294 0 MSB MSB CMOSP  
+ L=.18u  
+ W=.2u         
M_U5_U69_M6         U5_N312294 0 U5_U69_N39991 0 CMOSN  
+ L=.18u  
+ W=.18u         
M_U5_U69_M2         U5_U69_N39991 MSB 0 0 CMOSN  
+ L=.18u  
+ W=.18u         
M_U5_U69_M4         U5_N312294 MSB MSB MSB CMOSP  
+ L=.18u  
+ W=.2u         
M_U5_U42_M5         U5_N308675 -V2 MSB MSB CMOSP  
+ L=.18u  
+ W=.2u         
M_U5_U42_M6         U5_N308675 -V2 U5_U42_N39991 0 CMOSN  
+ L=.18u  
+ W=.18u         
M_U5_U42_M2         U5_U42_N39991 N222458 0 0 CMOSN  
+ L=.18u  
+ W=.18u         
M_U5_U42_M4         U5_N308675 N222458 MSB MSB CMOSP  
+ L=.18u  
+ W=.2u         
M_U5_U16_M5         U5_N246454 0 MSB MSB CMOSP  
+ L=.18u  
+ W=.2u         
M_U5_U16_M6         U5_N246454 0 U5_U16_N39991 0 CMOSN  
+ L=.18u  
+ W=.18u         
M_U5_U16_M2         U5_U16_N39991 MSB 0 0 CMOSN  
+ L=.18u  
+ W=.18u         
M_U5_U16_M4         U5_N246454 MSB MSB MSB CMOSP  
+ L=.18u  
+ W=.2u         
M_U5_U59_M5         U5_N309897 0 MSB MSB CMOSP  
+ L=.18u  
+ W=.2u         
M_U5_U59_M6         U5_N309897 0 U5_U59_N39991 0 CMOSN  
+ L=.18u  
+ W=.18u         
M_U5_U59_M2         U5_U59_N39991 MSB 0 0 CMOSN  
+ L=.18u  
+ W=.18u         
M_U5_U59_M4         U5_N309897 MSB MSB MSB CMOSP  
+ L=.18u  
+ W=.2u         
M_U5_U79_M5         U5_N312956 X2 MSB MSB CMOSP  
+ L=.18u  
+ W=.2u         
M_U5_U79_M6         U5_N312956 X2 0 0 CMOSN  
+ L=.18u  
+ W=.18u         
M_U5_U38_M5         U5_N266058 0 MSB MSB CMOSP  
+ L=.18u  
+ W=.2u         
M_U5_U38_M6         U5_N266058 0 U5_U38_N39991 0 CMOSN  
+ L=.18u  
+ W=.18u         
M_U5_U38_M2         U5_U38_N39991 MSB 0 0 CMOSN  
+ L=.18u  
+ W=.18u         
M_U5_U38_M4         U5_N266058 MSB MSB MSB CMOSP  
+ L=.18u  
+ W=.2u         
M_U5_U34_M5         U5_N266782 0 MSB MSB CMOSP  
+ L=.18u  
+ W=.2u         
M_U5_U34_M6         U5_N266782 0 U5_U34_N39991 0 CMOSN  
+ L=.18u  
+ W=.18u         
M_U5_U34_M2         U5_U34_N39991 MSB 0 0 CMOSN  
+ L=.18u  
+ W=.18u         
M_U5_U34_M4         U5_N266782 MSB MSB MSB CMOSP  
+ L=.18u  
+ W=.2u         
M_U5_U70_M5         U5_N312298 0 MSB MSB CMOSP  
+ L=.18u  
+ W=.2u         
M_U5_U70_M6         U5_N312298 0 U5_U70_N39991 0 CMOSN  
+ L=.18u  
+ W=.18u         
M_U5_U70_M2         U5_U70_N39991 MSB 0 0 CMOSN  
+ L=.18u  
+ W=.18u         
M_U5_U70_M4         U5_N312298 MSB MSB MSB CMOSP  
+ L=.18u  
+ W=.2u         
M_U5_U66_M16         X3 U5_N309909 MSB MSB CMOSP  
+ L=.18u  
+ W=.2u         
M_U5_U66_M5         X3 U5_N309933 MSB MSB CMOSP  
+ L=.18u  
+ W=.2u         
M_U5_U66_M11         X3 U5_N309897 MSB MSB CMOSP  
+ L=.18u  
+ W=.2u         
M_U5_U66_M9         X3 U5_N309917 MSB MSB CMOSP  
+ L=.18u  
+ W=.2u         
M_U5_U66_M1         X3 U5_N309897 U5_U66_N67495 0 CMOSN  
+ L=.18u  
+ W=.18u         
M_U5_U66_M6         U5_U66_N66385 U5_N309905 U5_U66_N66425 0 CMOSN  
+ L=.18u  
+ W=.18u         
M_U5_U66_M7         U5_U66_N66425 U5_N309909 U5_U66_N66937 0 CMOSN  
+ L=.18u  
+ W=.18u         
M_U5_U66_M12         X3 U5_N310243 MSB MSB CMOSP  
+ L=.18u  
+ W=.2u         
M_U5_U66_M2         U5_U66_N67495 U5_N309901 U5_U66_N66385 0 CMOSN  
+ L=.18u  
+ W=.18u         
M_U5_U66_M13         U5_U66_N67207 U5_N309917 U5_U66_N67213 0 CMOSN  
+ L=.18u  
+ W=.18u         
M_U5_U66_M10         U5_U66_N66937 U5_N310243 U5_U66_N67207 0 CMOSN  
+ L=.18u  
+ W=.18u         
M_U5_U66_M3         X3 U5_N309901 MSB MSB CMOSP  
+ L=.18u  
+ W=.2u         
M_U5_U66_M14         U5_U66_N67213 U5_N309925 U5_U66_N66527 0 CMOSN  
+ L=.18u  
+ W=.18u         
M_U5_U66_M8         X3 U5_N309925 MSB MSB CMOSP  
+ L=.18u  
+ W=.2u         
M_U5_U66_M4         X3 U5_N309905 MSB MSB CMOSP  
+ L=.18u  
+ W=.2u         
M_U5_U66_M15         U5_U66_N66527 U5_N309933 0 0 CMOSN  
+ L=.18u  
+ W=.18u         
M_U5_U43_M5         U5_N308687 -V4 MSB MSB CMOSP  
+ L=.18u  
+ W=.2u         
M_U5_U43_M6         U5_N308687 -V4 U5_U43_N39991 0 CMOSN  
+ L=.18u  
+ W=.18u         
M_U5_U43_M2         U5_U43_N39991 N222462 0 0 CMOSN  
+ L=.18u  
+ W=.18u         
M_U5_U43_M4         U5_N308687 N222462 MSB MSB CMOSP  
+ L=.18u  
+ W=.2u         
M_U5_U2_M5         U5_N245880 0 MSB MSB CMOSP  
+ L=.18u  
+ W=.2u         
M_U5_U2_M6         U5_N245880 0 U5_U2_N39991 0 CMOSN  
+ L=.18u  
+ W=.18u         
M_U5_U2_M2         U5_U2_N39991 MSB 0 0 CMOSN  
+ L=.18u  
+ W=.18u         
M_U5_U2_M4         U5_N245880 MSB MSB MSB CMOSP  
+ L=.18u  
+ W=.2u         
M_U5_U6_M5         U5_N245652 0 MSB MSB CMOSP  
+ L=.18u  
+ W=.2u         
M_U5_U6_M6         U5_N245652 0 U5_U6_N39991 0 CMOSN  
+ L=.18u  
+ W=.18u         
M_U5_U6_M2         U5_U6_N39991 MSB 0 0 CMOSN  
+ L=.18u  
+ W=.18u         
M_U5_U6_M4         U5_N245652 MSB MSB MSB CMOSP  
+ L=.18u  
+ W=.2u         
M_U5_U60_M5         U5_N309901 0 MSB MSB CMOSP  
+ L=.18u  
+ W=.2u         
M_U5_U60_M6         U5_N309901 0 U5_U60_N39991 0 CMOSN  
+ L=.18u  
+ W=.18u         
M_U5_U60_M2         U5_U60_N39991 MSB 0 0 CMOSN  
+ L=.18u  
+ W=.18u         
M_U5_U60_M4         U5_N309901 MSB MSB MSB CMOSP  
+ L=.18u  
+ W=.2u         
M_U5_U80_M5         U5_N312948 X1 MSB MSB CMOSP  
+ L=.18u  
+ W=.2u         
M_U5_U80_M6         U5_N312948 X1 0 0 CMOSN  
+ L=.18u  
+ W=.18u         
M_U5_U17_M16         U5_N245874 U5_N246528 MSB MSB CMOSP  
+ L=.18u  
+ W=.2u         
M_U5_U17_M5         U5_N245874 U5_N246454 MSB MSB CMOSP  
+ L=.18u  
+ W=.2u         
M_U5_U17_M11         U5_N245874 -V4 MSB MSB CMOSP  
+ L=.18u  
+ W=.2u         
M_U5_U17_M9         U5_N245874 U5_N246474 MSB MSB CMOSP  
+ L=.18u  
+ W=.2u         
M_U5_U17_M1         U5_N245874 -V4 U5_U17_N67495 0 CMOSN  
+ L=.18u  
+ W=.18u         
M_U5_U17_M6         U5_U17_N66385 U5_N246510 U5_U17_N66425 0 CMOSN  
+ L=.18u  
+ W=.18u         
M_U5_U17_M7         U5_U17_N66425 U5_N246528 U5_U17_N66937 0 CMOSN  
+ L=.18u  
+ W=.18u         
M_U5_U17_M12         U5_N245874 U5_N246486 MSB MSB CMOSP  
+ L=.18u  
+ W=.2u         
M_U5_U17_M2         U5_U17_N67495 U5_N246498 U5_U17_N66385 0 CMOSN  
+ L=.18u  
+ W=.18u         
M_U5_U17_M13         U5_U17_N67207 U5_N246474 U5_U17_N67213 0 CMOSN  
+ L=.18u  
+ W=.18u         
M_U5_U17_M10         U5_U17_N66937 U5_N246486 U5_U17_N67207 0 CMOSN  
+ L=.18u  
+ W=.18u         
M_U5_U17_M3         U5_N245874 U5_N246498 MSB MSB CMOSP  
+ L=.18u  
+ W=.2u         
M_U5_U17_M14         U5_U17_N67213 U5_N246462 U5_U17_N66527 0 CMOSN  
+ L=.18u  
+ W=.18u         
M_U5_U17_M8         U5_N245874 U5_N246462 MSB MSB CMOSP  
+ L=.18u  
+ W=.2u         
M_U5_U17_M4         U5_N245874 U5_N246510 MSB MSB CMOSP  
+ L=.18u  
+ W=.2u         
M_U5_U17_M15         U5_U17_N66527 U5_N246454 0 0 CMOSN  
+ L=.18u  
+ W=.18u         
M_U5_U35_M5         U5_N265840 0 MSB MSB CMOSP  
+ L=.18u  
+ W=.2u         
M_U5_U35_M6         U5_N265840 0 U5_U35_N39991 0 CMOSN  
+ L=.18u  
+ W=.18u         
M_U5_U35_M2         U5_U35_N39991 MSB 0 0 CMOSN  
+ L=.18u  
+ W=.18u         
M_U5_U35_M4         U5_N265840 MSB MSB MSB CMOSP  
+ L=.18u  
+ W=.2u         
M_U5_U71_M5         U5_N312302 0 MSB MSB CMOSP  
+ L=.18u  
+ W=.2u         
M_U5_U71_M6         U5_N312302 0 U5_U71_N39991 0 CMOSN  
+ L=.18u  
+ W=.18u         
M_U5_U71_M2         U5_U71_N39991 MSB 0 0 CMOSN  
+ L=.18u  
+ W=.18u         
M_U5_U71_M4         U5_N312302 MSB MSB MSB CMOSP  
+ L=.18u  
+ W=.2u         
M_U5_U44_M5         U5_N308739 -V6 MSB MSB CMOSP  
+ L=.18u  
+ W=.2u         
M_U5_U44_M6         U5_N308739 -V6 U5_U44_N39991 0 CMOSN  
+ L=.18u  
+ W=.18u         
M_U5_U44_M2         U5_U44_N39991 N222470 0 0 CMOSN  
+ L=.18u  
+ W=.18u         
M_U5_U44_M4         U5_N308739 N222470 MSB MSB CMOSP  
+ L=.18u  
+ W=.2u         
M_U5_U61_M5         U5_N309905 0 MSB MSB CMOSP  
+ L=.18u  
+ W=.2u         
M_U5_U61_M6         U5_N309905 0 U5_U61_N39991 0 CMOSN  
+ L=.18u  
+ W=.18u         
M_U5_U61_M2         U5_U61_N39991 MSB 0 0 CMOSN  
+ L=.18u  
+ W=.18u         
M_U5_U61_M4         U5_N309905 MSB MSB MSB CMOSP  
+ L=.18u  
+ W=.2u         
M_U5_U18_M5         U5_N246440 U5_N245874 MSB MSB CMOSP  
+ L=.18u  
+ W=.2u         
M_U5_U18_M6         U5_N246440 U5_N245874 0 0 CMOSN  
+ L=.18u  
+ W=.18u         
M_U5_U76_M5         U5_N312326 0 MSB MSB CMOSP  
+ L=.18u  
+ W=.2u         
M_U5_U76_M6         U5_N312326 0 U5_U76_N39991 0 CMOSN  
+ L=.18u  
+ W=.18u         
M_U5_U76_M2         U5_U76_N39991 MSB 0 0 CMOSN  
+ L=.18u  
+ W=.18u         
M_U5_U76_M4         U5_N312326 MSB MSB MSB CMOSP  
+ L=.18u  
+ W=.2u         
M_U5_U72_M5         U5_N312618 0 MSB MSB CMOSP  
+ L=.18u  
+ W=.2u         
M_U5_U72_M6         U5_N312618 0 U5_U72_N39991 0 CMOSN  
+ L=.18u  
+ W=.18u         
M_U5_U72_M2         U5_U72_N39991 MSB 0 0 CMOSN  
+ L=.18u  
+ W=.18u         
M_U5_U72_M4         U5_N312618 MSB MSB MSB CMOSP  
+ L=.18u  
+ W=.2u         
M_U5_U45_M5         U5_N308919 -V8 MSB MSB CMOSP  
+ L=.18u  
+ W=.2u         
M_U5_U45_M6         U5_N308919 -V8 U5_U45_N39991 0 CMOSN  
+ L=.18u  
+ W=.18u         
M_U5_U45_M2         U5_U45_N39991 N222474 0 0 CMOSN  
+ L=.18u  
+ W=.18u         
M_U5_U45_M4         U5_N308919 N222474 MSB MSB CMOSP  
+ L=.18u  
+ W=.2u         
M_U5_U36_M5         U5_N265940 0 MSB MSB CMOSP  
+ L=.18u  
+ W=.2u         
M_U5_U36_M6         U5_N265940 0 U5_U36_N39991 0 CMOSN  
+ L=.18u  
+ W=.18u         
M_U5_U36_M2         U5_U36_N39991 MSB 0 0 CMOSN  
+ L=.18u  
+ W=.18u         
M_U5_U36_M4         U5_N265940 MSB MSB MSB CMOSP  
+ L=.18u  
+ W=.2u         
M_U5_U21_M5         U5_N266018 -V4 MSB MSB CMOSP  
+ L=.18u  
+ W=.2u         
M_U5_U21_M6         U5_N266018 -V4 U5_U21_N39991 0 CMOSN  
+ L=.18u  
+ W=.18u         
M_U5_U21_M2         U5_U21_N39991 N222466 0 0 CMOSN  
+ L=.18u  
+ W=.18u         
M_U5_U21_M4         U5_N266018 N222466 MSB MSB CMOSP  
+ L=.18u  
+ W=.2u         
M_U5_U62_M5         U5_N309909 0 MSB MSB CMOSP  
+ L=.18u  
+ W=.2u         
M_U5_U62_M6         U5_N309909 0 U5_U62_N39991 0 CMOSN  
+ L=.18u  
+ W=.18u         
M_U5_U62_M2         U5_U62_N39991 MSB 0 0 CMOSN  
+ L=.18u  
+ W=.18u         
M_U5_U62_M4         U5_N309909 MSB MSB MSB CMOSP  
+ L=.18u  
+ W=.2u         
M_U5_U81_M7         LSB U5_N312948 MSB MSB CMOSP  
+ L=.18u  
+ W=.2u         
M_U5_U81_M8         LSB U5_N312956 MSB MSB CMOSP  
+ L=.18u  
+ W=.2u         
M_U5_U81_M12         LSB U5_N312968 MSB MSB CMOSP  
+ L=.18u  
+ W=.2u         
M_U5_U81_M9         LSB U5_N312976 MSB MSB CMOSP  
+ L=.18u  
+ W=.2u         
M_U5_U81_M1         LSB U5_N312948 U5_U81_N88766 0 CMOSN  
+ L=.18u  
+ W=.18u         
M_U5_U81_M10         U5_U81_N88906 U5_N312976 U5_U81_N88946 0 CMOSN  
+ L=.18u  
+ W=.18u         
M_U5_U81_M3         U5_U81_N88766 U5_N312956 U5_U81_N88906 0 CMOSN  
+ L=.18u  
+ W=.18u         
M_U5_U81_M11         U5_U81_N88946 U5_N312968 0 0 CMOSN  
+ L=.18u  
+ W=.18u         
M_U5_U50_M5         U5_N309027 0 MSB MSB CMOSP  
+ L=.18u  
+ W=.2u         
M_U5_U50_M6         U5_N309027 0 U5_U50_N39991 0 CMOSN  
+ L=.18u  
+ W=.18u         
M_U5_U50_M2         U5_U50_N39991 MSB 0 0 CMOSN  
+ L=.18u  
+ W=.18u         
M_U5_U50_M4         U5_N309027 MSB MSB MSB CMOSP  
+ L=.18u  
+ W=.2u         
M_U5_U46_M5         U5_N308811 -V10 MSB MSB CMOSP  
+ L=.18u  
+ W=.2u         
M_U5_U46_M6         U5_N308811 -V10 U5_U46_N39991 0 CMOSN  
+ L=.18u  
+ W=.18u         
M_U5_U46_M2         U5_U46_N39991 N222482 0 0 CMOSN  
+ L=.18u  
+ W=.18u         
M_U5_U46_M4         U5_N308811 N222482 MSB MSB CMOSP  
+ L=.18u  
+ W=.2u         
M_U5_U19_M5         3SB U5_N246440 MSB MSB CMOSP  
+ L=.18u  
+ W=.2u         
M_U5_U19_M6         3SB U5_N246440 0 0 CMOSN  
+ L=.18u  
+ W=.18u         
M_U5_U10_M5         U5_N246498 -V8 MSB MSB CMOSP  
+ L=.18u  
+ W=.2u         
M_U5_U10_M6         U5_N246498 -V8 U5_U10_N39991 0 CMOSN  
+ L=.18u  
+ W=.18u         
M_U5_U10_M2         U5_U10_N39991 N222486 0 0 CMOSN  
+ L=.18u  
+ W=.18u         
M_U5_U10_M4         U5_N246498 N222486 MSB MSB CMOSP  
+ L=.18u  
+ W=.2u         
M_U5_U73_M5         U5_N312310 0 MSB MSB CMOSP  
+ L=.18u  
+ W=.2u         
M_U5_U73_M6         U5_N312310 0 U5_U73_N39991 0 CMOSN  
+ L=.18u  
+ W=.18u         
M_U5_U73_M2         U5_U73_N39991 MSB 0 0 CMOSN  
+ L=.18u  
+ W=.18u         
M_U5_U73_M4         U5_N312310 MSB MSB MSB CMOSP  
+ L=.18u  
+ W=.2u         
M_U5_U22_M5         U5_N266026 -V8 MSB MSB CMOSP  
+ L=.18u  
+ W=.2u         
M_U5_U22_M6         U5_N266026 -V8 U5_U22_N39991 0 CMOSN  
+ L=.18u  
+ W=.18u         
M_U5_U22_M2         U5_U22_N39991 N222478 0 0 CMOSN  
+ L=.18u  
+ W=.18u         
M_U5_U22_M4         U5_N266026 N222478 MSB MSB CMOSP  
+ L=.18u  
+ W=.2u         
M_U5_U63_M5         U5_N310243 0 MSB MSB CMOSP  
+ L=.18u  
+ W=.2u         
M_U5_U63_M6         U5_N310243 0 U5_U63_N39991 0 CMOSN  
+ L=.18u  
+ W=.18u         
M_U5_U63_M2         U5_U63_N39991 MSB 0 0 CMOSN  
+ L=.18u  
+ W=.18u         
M_U5_U63_M4         U5_N310243 MSB MSB MSB CMOSP  
+ L=.18u  
+ W=.2u         
M_U5_U29_M5         U5_N266334 U5_N266492 MSB MSB CMOSP  
+ L=.18u  
+ W=.2u         
M_U5_U29_M6         U5_N266334 U5_N266492 0 0 CMOSN  
+ L=.18u  
+ W=.18u         
M_U5_U57_M16         X2 U5_N309039 MSB MSB CMOSP  
+ L=.18u  
+ W=.2u         
M_U5_U57_M5         X2 U5_N309063 MSB MSB CMOSP  
+ L=.18u  
+ W=.2u         
M_U5_U57_M11         X2 U5_N309027 MSB MSB CMOSP  
+ L=.18u  
+ W=.2u         
M_U5_U57_M9         X2 U5_N309047 MSB MSB CMOSP  
+ L=.18u  
+ W=.2u         
M_U5_U57_M1         X2 U5_N309027 U5_U57_N67495 0 CMOSN  
+ L=.18u  
+ W=.18u         
M_U5_U57_M6         U5_U57_N66385 U5_N309035 U5_U57_N66425 0 CMOSN  
+ L=.18u  
+ W=.18u         
M_U5_U57_M7         U5_U57_N66425 U5_N309039 U5_U57_N66937 0 CMOSN  
+ L=.18u  
+ W=.18u         
M_U5_U57_M12         X2 U5_N309355 MSB MSB CMOSP  
+ L=.18u  
+ W=.2u         
M_U5_U57_M2         U5_U57_N67495 U5_N309031 U5_U57_N66385 0 CMOSN  
+ L=.18u  
+ W=.18u         
M_U5_U57_M13         U5_U57_N67207 U5_N309047 U5_U57_N67213 0 CMOSN  
+ L=.18u  
+ W=.18u         
M_U5_U57_M10         U5_U57_N66937 U5_N309355 U5_U57_N67207 0 CMOSN  
+ L=.18u  
+ W=.18u         
M_U5_U57_M3         X2 U5_N309031 MSB MSB CMOSP  
+ L=.18u  
+ W=.2u         
M_U5_U57_M14         U5_U57_N67213 U5_N309055 U5_U57_N66527 0 CMOSN  
+ L=.18u  
+ W=.18u         
M_U5_U57_M8         X2 U5_N309055 MSB MSB CMOSP  
+ L=.18u  
+ W=.2u         
M_U5_U57_M4         X2 U5_N309035 MSB MSB CMOSP  
+ L=.18u  
+ W=.2u         
M_U5_U57_M15         U5_U57_N66527 U5_N309063 0 0 CMOSN  
+ L=.18u  
+ W=.18u         
M_U5_U51_M5         U5_N309031 0 MSB MSB CMOSP  
+ L=.18u  
+ W=.2u         
M_U5_U51_M6         U5_N309031 0 U5_U51_N39991 0 CMOSN  
+ L=.18u  
+ W=.18u         
M_U5_U51_M2         U5_U51_N39991 MSB 0 0 CMOSN  
+ L=.18u  
+ W=.18u         
M_U5_U51_M4         U5_N309031 MSB MSB MSB CMOSP  
+ L=.18u  
+ W=.2u         
M_U5_U47_M5         U5_N308789 -V12 MSB MSB CMOSP  
+ L=.18u  
+ W=.2u         
M_U5_U47_M6         U5_N308789 -V12 U5_U47_N39991 0 CMOSN  
+ L=.18u  
+ W=.18u         
M_U5_U47_M2         U5_U47_N39991 N222490 0 0 CMOSN  
+ L=.18u  
+ W=.18u         
M_U5_U47_M4         U5_N308789 N222490 MSB MSB CMOSP  
+ L=.18u  
+ W=.2u         
M_U5_U11_M5         U5_N246510 0 MSB MSB CMOSP  
+ L=.18u  
+ W=.2u         
M_U5_U11_M6         U5_N246510 0 U5_U11_N39991 0 CMOSN  
+ L=.18u  
+ W=.18u         
M_U5_U11_M2         U5_U11_N39991 MSB 0 0 CMOSN  
+ L=.18u  
+ W=.18u         
M_U5_U11_M4         U5_N246510 MSB MSB MSB CMOSP  
+ L=.18u  
+ W=.2u         
M_U5_U28_M16         U5_N265648 U5_N266034 MSB MSB CMOSP  
+ L=.18u  
+ W=.2u         
M_U5_U28_M5         U5_N265648 U5_N265978 MSB MSB CMOSP  
+ L=.18u  
+ W=.2u         
M_U5_U28_M11         U5_N265648 -V2 MSB MSB CMOSP  
+ L=.18u  
+ W=.2u         
M_U5_U28_M9         U5_N265648 U5_N265998 MSB MSB CMOSP  
+ L=.18u  
+ W=.2u         
M_U5_U28_M1         U5_N265648 -V2 U5_U28_N67495 0 CMOSN  
+ L=.18u  
+ W=.18u         
M_U5_U28_M6         U5_U28_N66385 U5_N266026 U5_U28_N66425 0 CMOSN  
+ L=.18u  
+ W=.18u         
M_U5_U28_M7         U5_U28_N66425 U5_N266034 U5_U28_N66937 0 CMOSN  
+ L=.18u  
+ W=.18u         
M_U5_U28_M12         U5_N265648 U5_N266006 MSB MSB CMOSP  
+ L=.18u  
+ W=.2u         
M_U5_U28_M2         U5_U28_N67495 U5_N266018 U5_U28_N66385 0 CMOSN  
+ L=.18u  
+ W=.18u         
M_U5_U28_M13         U5_U28_N67207 U5_N265998 U5_U28_N67213 0 CMOSN  
+ L=.18u  
+ W=.18u         
M_U5_U28_M10         U5_U28_N66937 U5_N266006 U5_U28_N67207 0 CMOSN  
+ L=.18u  
+ W=.18u         
M_U5_U28_M3         U5_N265648 U5_N266018 MSB MSB CMOSP  
+ L=.18u  
+ W=.2u         
M_U5_U28_M14         U5_U28_N67213 U5_N265986 U5_U28_N66527 0 CMOSN  
+ L=.18u  
+ W=.18u         
M_U5_U28_M8         U5_N265648 U5_N265986 MSB MSB CMOSP  
+ L=.18u  
+ W=.2u         
M_U5_U28_M4         U5_N265648 U5_N266026 MSB MSB CMOSP  
+ L=.18u  
+ W=.2u         
M_U5_U28_M15         U5_U28_N66527 U5_N265978 0 0 CMOSN  
+ L=.18u  
+ W=.18u         
M_U5_U74_M5         U5_N312318 0 MSB MSB CMOSP  
+ L=.18u  
+ W=.2u         
M_U5_U74_M6         U5_N312318 0 U5_U74_N39991 0 CMOSN  
+ L=.18u  
+ W=.18u         
M_U5_U74_M2         U5_U74_N39991 MSB 0 0 CMOSN  
+ L=.18u  
+ W=.18u         
M_U5_U74_M4         U5_N312318 MSB MSB MSB CMOSP  
+ L=.18u  
+ W=.2u         
M_U5_U23_M5         U5_N266034 -V12 MSB MSB CMOSP  
+ L=.18u  
+ W=.2u         
M_U5_U23_M6         U5_N266034 -V12 U5_U23_N39991 0 CMOSN  
+ L=.18u  
+ W=.18u         
M_U5_U23_M2         U5_U23_N39991 N222494 0 0 CMOSN  
+ L=.18u  
+ W=.18u         
M_U5_U23_M4         U5_N266034 N222494 MSB MSB CMOSP  
+ L=.18u  
+ W=.2u         
M_U5_U67_M5         U5_N309933 0 MSB MSB CMOSP  
+ L=.18u  
+ W=.2u         
M_U5_U67_M6         U5_N309933 0 U5_U67_N39991 0 CMOSN  
+ L=.18u  
+ W=.18u         
M_U5_U67_M2         U5_U67_N39991 MSB 0 0 CMOSN  
+ L=.18u  
+ W=.18u         
M_U5_U67_M4         U5_N309933 MSB MSB MSB CMOSP  
+ L=.18u  
+ W=.2u         
M_U5_U64_M5         U5_N309917 0 MSB MSB CMOSP  
+ L=.18u  
+ W=.2u         
M_U5_U64_M6         U5_N309917 0 U5_U64_N39991 0 CMOSN  
+ L=.18u  
+ W=.18u         
M_U5_U64_M2         U5_U64_N39991 MSB 0 0 CMOSN  
+ L=.18u  
+ W=.18u         
M_U5_U64_M4         U5_N309917 MSB MSB MSB CMOSP  
+ L=.18u  
+ W=.2u         
M_U5_U52_M5         U5_N309035 0 MSB MSB CMOSP  
+ L=.18u  
+ W=.2u         
M_U5_U52_M6         U5_N309035 0 U5_U52_N39991 0 CMOSN  
+ L=.18u  
+ W=.18u         
M_U5_U52_M2         U5_U52_N39991 MSB 0 0 CMOSN  
+ L=.18u  
+ W=.18u         
M_U5_U52_M4         U5_N309035 MSB MSB MSB CMOSP  
+ L=.18u  
+ W=.2u         
M_U5_U24_M5         U5_N266006 0 MSB MSB CMOSP  
+ L=.18u  
+ W=.2u         
M_U5_U24_M6         U5_N266006 0 U5_U24_N39991 0 CMOSN  
+ L=.18u  
+ W=.18u         
M_U5_U24_M2         U5_U24_N39991 MSB 0 0 CMOSN  
+ L=.18u  
+ W=.18u         
M_U5_U24_M4         U5_N266006 MSB MSB MSB CMOSP  
+ L=.18u  
+ W=.2u         
M_U5_U39_M5         U5_N266348 U5_N265648 MSB MSB CMOSP  
+ L=.18u  
+ W=.2u         
M_U5_U39_M6         U5_N266348 U5_N265648 0 0 CMOSN  
+ L=.18u  
+ W=.18u         
M_U5_U48_M5         U5_N308767 -V14 MSB MSB CMOSP  
+ L=.18u  
+ W=.2u         
M_U5_U48_M6         U5_N308767 -V14 U5_U48_N39991 0 CMOSN  
+ L=.18u  
+ W=.18u         
M_U5_U48_M2         U5_U48_N39991 N222498 0 0 CMOSN  
+ L=.18u  
+ W=.18u         
M_U5_U48_M4         U5_N308767 N222498 MSB MSB CMOSP  
+ L=.18u  
+ W=.2u         
M_U5_U65_M5         U5_N309925 0 MSB MSB CMOSP  
+ L=.18u  
+ W=.2u         
M_U5_U65_M6         U5_N309925 0 U5_U65_N39991 0 CMOSN  
+ L=.18u  
+ W=.18u         
M_U5_U65_M2         U5_U65_N39991 MSB 0 0 CMOSN  
+ L=.18u  
+ W=.18u         
M_U5_U65_M4         U5_N309925 MSB MSB MSB CMOSP  
+ L=.18u  
+ W=.2u         
M_U5_U12_M5         U5_N246528 0 MSB MSB CMOSP  
+ L=.18u  
+ W=.2u         
M_U5_U12_M6         U5_N246528 0 U5_U12_N39991 0 CMOSN  
+ L=.18u  
+ W=.18u         
M_U5_U12_M2         U5_U12_N39991 MSB 0 0 CMOSN  
+ L=.18u  
+ W=.18u         
M_U5_U12_M4         U5_N246528 MSB MSB MSB CMOSP  
+ L=.18u  
+ W=.2u         
M_U5_U53_M5         U5_N309039 0 MSB MSB CMOSP  
+ L=.18u  
+ W=.2u         
M_U5_U53_M6         U5_N309039 0 U5_U53_N39991 0 CMOSN  
+ L=.18u  
+ W=.18u         
M_U5_U53_M2         U5_U53_N39991 MSB 0 0 CMOSN  
+ L=.18u  
+ W=.18u         
M_U5_U53_M4         U5_N309039 MSB MSB MSB CMOSP  
+ L=.18u  
+ W=.2u         
M_U5_U25_M5         U5_N265998 0 MSB MSB CMOSP  
+ L=.18u  
+ W=.2u         
M_U5_U25_M6         U5_N265998 0 U5_U25_N39991 0 CMOSN  
+ L=.18u  
+ W=.18u         
M_U5_U25_M2         U5_U25_N39991 MSB 0 0 CMOSN  
+ L=.18u  
+ W=.18u         
M_U5_U25_M4         U5_N265998 MSB MSB MSB CMOSP  
+ L=.18u  
+ W=.2u         
M_U5_U77_M5         U5_N312968 U5_X4 MSB MSB CMOSP  
+ L=.18u  
+ W=.2u         
M_U5_U77_M6         U5_N312968 U5_X4 0 0 CMOSN  
+ L=.18u  
+ W=.18u         
M_U5_U30_M5         U5_N265628 0 MSB MSB CMOSP  
+ L=.18u  
+ W=.2u         
M_U5_U30_M6         U5_N265628 0 U5_U30_N39991 0 CMOSN  
+ L=.18u  
+ W=.18u         
M_U5_U30_M2         U5_U30_N39991 MSB 0 0 CMOSN  
+ L=.18u  
+ W=.18u         
M_U5_U30_M4         U5_N265628 MSB MSB MSB CMOSP  
+ L=.18u  
+ W=.2u         
M_U5_U13_M5         U5_N246486 0 MSB MSB CMOSP  
+ L=.18u  
+ W=.2u         
M_U5_U13_M6         U5_N246486 0 U5_U13_N39991 0 CMOSN  
+ L=.18u  
+ W=.18u         
M_U5_U13_M2         U5_U13_N39991 MSB 0 0 CMOSN  
+ L=.18u  
+ W=.18u         
M_U5_U13_M4         U5_N246486 MSB MSB MSB CMOSP  
+ L=.18u  
+ W=.2u         
M_U5_U54_M5         U5_N309355 0 MSB MSB CMOSP  
+ L=.18u  
+ W=.2u         
M_U5_U54_M6         U5_N309355 0 U5_U54_N39991 0 CMOSN  
+ L=.18u  
+ W=.18u         
M_U5_U54_M2         U5_U54_N39991 MSB 0 0 CMOSN  
+ L=.18u  
+ W=.18u         
M_U5_U54_M4         U5_N309355 MSB MSB MSB CMOSP  
+ L=.18u  
+ W=.2u         
M_U5_U58_M5         U5_N309063 0 MSB MSB CMOSP  
+ L=.18u  
+ W=.2u         
M_U5_U58_M6         U5_N309063 0 U5_U58_N39991 0 CMOSN  
+ L=.18u  
+ W=.18u         
M_U5_U58_M2         U5_U58_N39991 MSB 0 0 CMOSN  
+ L=.18u  
+ W=.18u         
M_U5_U58_M4         U5_N309063 MSB MSB MSB CMOSP  
+ L=.18u  
+ W=.2u         
M_U5_U26_M5         U5_N265986 0 MSB MSB CMOSP  
+ L=.18u  
+ W=.2u         
M_U5_U26_M6         U5_N265986 0 U5_U26_N39991 0 CMOSN  
+ L=.18u  
+ W=.18u         
M_U5_U26_M2         U5_U26_N39991 MSB 0 0 CMOSN  
+ L=.18u  
+ W=.18u         
M_U5_U26_M4         U5_N265986 MSB MSB MSB CMOSP  
+ L=.18u  
+ W=.2u         
M_U5_U37_M16         U5_N266492 U5_N265640 MSB MSB CMOSP  
+ L=.18u  
+ W=.2u         
M_U5_U37_M5         U5_N266492 U5_N266058 MSB MSB CMOSP  
+ L=.18u  
+ W=.2u         
M_U5_U37_M11         U5_N266492 U5_N265628 MSB MSB CMOSP  
+ L=.18u  
+ W=.2u         
M_U5_U37_M9         U5_N266492 U5_N265840 MSB MSB CMOSP  
+ L=.18u  
+ W=.2u         
M_U5_U37_M1         U5_N266492 U5_N265628 U5_U37_N67495 0 CMOSN  
+ L=.18u  
+ W=.18u         
M_U5_U37_M6         U5_U37_N66385 U5_N265636 U5_U37_N66425 0 CMOSN  
+ L=.18u  
+ W=.18u         
M_U5_U37_M7         U5_U37_N66425 U5_N265640 U5_U37_N66937 0 CMOSN  
+ L=.18u  
+ W=.18u         
M_U5_U37_M12         U5_N266492 U5_N266782 MSB MSB CMOSP  
+ L=.18u  
+ W=.2u         
M_U5_U37_M2         U5_U37_N67495 U5_N265632 U5_U37_N66385 0 CMOSN  
+ L=.18u  
+ W=.18u         
M_U5_U37_M13         U5_U37_N67207 U5_N265840 U5_U37_N67213 0 CMOSN  
+ L=.18u  
+ W=.18u         
M_U5_U37_M10         U5_U37_N66937 U5_N266782 U5_U37_N67207 0 CMOSN  
+ L=.18u  
+ W=.18u         
M_U5_U37_M3         U5_N266492 U5_N265632 MSB MSB CMOSP  
+ L=.18u  
+ W=.2u         
M_U5_U37_M14         U5_U37_N67213 U5_N265940 U5_U37_N66527 0 CMOSN  
+ L=.18u  
+ W=.18u         
M_U5_U37_M8         U5_N266492 U5_N265940 MSB MSB CMOSP  
+ L=.18u  
+ W=.2u         
M_U5_U37_M4         U5_N266492 U5_N265636 MSB MSB CMOSP  
+ L=.18u  
+ W=.2u         
M_U5_U37_M15         U5_U37_N66527 U5_N266058 0 0 CMOSN  
+ L=.18u  
+ W=.18u         
M_U5_U8_M7         4SB -V8 MSB MSB CMOSP  
+ L=.18u  
+ W=.2u         
M_U5_U8_M8         4SB U5_N245652 MSB MSB CMOSP  
+ L=.18u  
+ W=.2u         
M_U5_U8_M12         4SB U5_N245622 MSB MSB CMOSP  
+ L=.18u  
+ W=.2u         
M_U5_U8_M9         4SB U5_N245638 MSB MSB CMOSP  
+ L=.18u  
+ W=.2u         
M_U5_U8_M1         4SB -V8 U5_U8_N88766 0 CMOSN  
+ L=.18u  
+ W=.18u         
M_U5_U8_M10         U5_U8_N88906 U5_N245638 U5_U8_N88946 0 CMOSN  
+ L=.18u  
+ W=.18u         
M_U5_U8_M3         U5_U8_N88766 U5_N245652 U5_U8_N88906 0 CMOSN  
+ L=.18u  
+ W=.18u         
M_U5_U8_M11         U5_U8_N88946 U5_N245622 0 0 CMOSN  
+ L=.18u  
+ W=.18u         
M_U5_U31_M5         U5_N265632 0 MSB MSB CMOSP  
+ L=.18u  
+ W=.2u         
M_U5_U31_M6         U5_N265632 0 U5_U31_N39991 0 CMOSN  
+ L=.18u  
+ W=.18u         
M_U5_U31_M2         U5_U31_N39991 MSB 0 0 CMOSN  
+ L=.18u  
+ W=.18u         
M_U5_U31_M4         U5_N265632 MSB MSB MSB CMOSP  
+ L=.18u  
+ W=.2u         
M_U5_U40_M5         2SB U5_N266334 MSB MSB CMOSP  
+ L=.18u  
+ W=.2u         
M_U5_U40_M6         2SB U5_N266334 U5_U40_N39991 0 CMOSN  
+ L=.18u  
+ W=.18u         
M_U5_U40_M2         U5_U40_N39991 U5_N266348 0 0 CMOSN  
+ L=.18u  
+ W=.18u         
M_U5_U40_M4         2SB U5_N266348 MSB MSB CMOSP  
+ L=.18u  
+ W=.2u         
M_U5_U14_M5         U5_N246474 0 MSB MSB CMOSP  
+ L=.18u  
+ W=.2u         
M_U5_U14_M6         U5_N246474 0 U5_U14_N39991 0 CMOSN  
+ L=.18u  
+ W=.18u         
M_U5_U14_M2         U5_U14_N39991 MSB 0 0 CMOSN  
+ L=.18u  
+ W=.18u         
M_U5_U14_M4         U5_N246474 MSB MSB MSB CMOSP  
+ L=.18u  
+ W=.2u         
M_U5_U55_M5         U5_N309047 0 MSB MSB CMOSP  
+ L=.18u  
+ W=.2u         
M_U5_U55_M6         U5_N309047 0 U5_U55_N39991 0 CMOSN  
+ L=.18u  
+ W=.18u         
M_U5_U55_M2         U5_U55_N39991 MSB 0 0 CMOSN  
+ L=.18u  
+ W=.18u         
M_U5_U55_M4         U5_N309047 MSB MSB MSB CMOSP  
+ L=.18u  
+ W=.2u         
M_U5_U27_M5         U5_N265978 0 MSB MSB CMOSP  
+ L=.18u  
+ W=.2u         
M_U5_U27_M6         U5_N265978 0 U5_U27_N39991 0 CMOSN  
+ L=.18u  
+ W=.18u         
M_U5_U27_M2         U5_U27_N39991 MSB 0 0 CMOSN  
+ L=.18u  
+ W=.18u         
M_U5_U27_M4         U5_N265978 MSB MSB MSB CMOSP  
+ L=.18u  
+ W=.2u         
R_R1         MSB MSB  100k  
R_R2         5SB MSB  100k  
V_VDD         MSB 0 3.3
R_R3         4SB MSB  100k  
V_SENALES2_-V14         -V14 0  
+PULSE 0 3 13.9u .1u 0 1u 15u
V_SENALES2_V12         N222486 0  
+PULSE 3 0 11.9u .1u 0 3u 15u
V_SENALES2_V9         N222474 0  
+PULSE 3 0 8.9u .1u 0 6u 15u
V_SENALES2_-V4         -V4 0  
+PULSE 0 3 3.9u .1u 0 11u 15u
V_SENALES2_V1         -V1 0  
+PULSE 0 3 0.9u .1u 0 14u 15u
V_SENALES2_V5         N222462 0  
+PULSE 3 0 4.9u .1u 0 10u 15u
V_SENALES2_V15         N222498 0  
+PULSE 3 0 14.9u .1u 0u 0u 15u
V_SENALES2_-V12         -V12 0  
+PULSE 0 3 11.9u .1u 0 3u 15u
V_SENALES2_V10         N222478 0  
+PULSE 3 0 9.9u .1u 0 5u 15u
V_SENALES2_-V2         -V2 0  
+PULSE 0 3 1.9u .1u 0 13u 15u
V_SENALES2_V13         N222490 0  
+PULSE 3 0 12.9u .1u 0 2u 15u
V_SENALES2_-V10         -V10 0  
+PULSE 0 3 9.9u .1u 0 5u 15u
V_SENALES2_V3         N222458 0  
+PULSE 3 0 2.9u .1u 0 12u 15u
V_SENALES2_V6         N222466 0  
+PULSE 3 0 5.9u .1u 0 9u 15u
V_SENALES2_V14         N222494 0  
+PULSE 3 0 13.9u .1u 0 1u 15u
V_SENALES2_V11         N222482 0  
+PULSE 3 0 10.9u .1u 0 4u 15u
V_SENALES2_-V8         -V8 0  
+PULSE 0 3 7.9u .1u 0 7u 15u
V_SENALES2_-V6         -V6 0  
+PULSE 0 3 5.9u .1u 0 9u 15u
V_SENALES2_V7         N222470 0  
+PULSE 3 0 6.9u .1u 0 8u 15u

**** RESUMING prueba.cir ****
.END

Mosfet M_U5_U78_M5, model CMOSP: Using BSIM VERSION 3.1 or lower
WARNING -- Mosfet M_U5_U78_M5, model CMOSP: Pd = 0 is less than W
WARNING -- Mosfet M_U5_U78_M5, model CMOSP: Ps = 0 is less than W
Mosfet M_U5_U78_M6, model CMOSN: Using BSIM VERSION 3.1 or lower
WARNING -- Mosfet M_U5_U78_M6, model CMOSN: Pd = 0 is less than W
WARNING -- Mosfet M_U5_U78_M6, model CMOSN: Ps = 0 is less than W
**** 03/22/10 19:20:39 ******* PSpice 16.0.0 (July 2006) ****** ID# 0 ********

 ** Profile: "NDECODER-64-prueba"  [ D:\Documents\TESIS\fiocs\Design\I-DECODER-001\OrCAD\I-DECODER-6BITS\i-decoder-6bits-pspicefiles\


 ****     MOSFET MODEL PARAMETERS


******************************************************************************




               CMOSP           CMOSN           
               PMOS            NMOS            
  T_Measured   27              27            
   T_Current   27              27            
       LEVEL    7               7            
           L  100.000000E-06  100.000000E-06 
           W  100.000000E-06  100.000000E-06 
         VTO    -.413091         .294194     
          KP  460.419200E-06  460.419200E-06 
       GAMMA    0               0            
      LAMBDA    0               0            
         RSH    5.9             6.2          
          IS    1.000000E-15    1.000000E-15 
          JS  100.000000E-06  100.000000E-06 
          PB     .821464         .99         
        PBSW     .8008           .8          
          CJ    1.165977E-03  815.244000E-06 
        CJSW  122.005600E-12  165.796200E-12 
          MJ     .425655         .610228     
        MJSW     .1001           .163262     
        CGSO  500.000000E-12  500.000000E-12 
        CGDO  500.000000E-12  500.000000E-12 
        CGBO    1.000000E-12    1.000000E-12 
         TOX    4.500000E-09    4.500000E-09 
          XJ  100.000000E-09  100.000000E-09 
       UCRIT   10.000000E+03   10.000000E+03 
       DELTA     .01             .01         
      DIOMOD    2               2            
          K1     .59909          .541355     
          K2 -669.794000E-09    -.032332     
        LETA    0               0            
        WETA    0               0            
          U0  118.3014        269.8792       
       XPART     .5              .5          
        VTH0    -.413091         .294194     
          K3     .080859        1.000406E-03 
          W0    1.000000E-06  100.000000E-09 
         NLX   25.530790E-09  206.491900E-09 
        DVT0     .819884         .565214     
        DVT1     .744212         .260305     
          UA    1.535614E-09   -1.619209E-09 
          UB    1.000000E-21    2.953688E-18 
          UC -100.000000E-12   57.637850E-12 
        VSAT  173.454300E+03  106.504000E+03 
        RDSW  677.8533        150            
        VOFF    -.142681        -.09299      
     NFACTOR     .94145         2.044734     
        PCLM     .334199        1.968647     
      PDIBL1     .132793        1            
      PDIBL2    9.825629E-03    -.072042     
       DROUT     .81589         1            
      PSCBE1    3.057881E+09    2.350722E+09 
      PSCBE2    5.892816E-09  508.313600E-12 
          A0     .926787        1.425322     
          A1     .01033          .023731     
          A2     .752154         .550469     
       NPEAK  415.890000E+15  235.490000E+15 
         LDD    0               0            
        LITL   36.742350E-09   36.742350E-09 
         UC1  -56.000000E-12  -56.000000E-12 
        PVAG     .122566                     
        KETA     .022875        -.016685     
        ETA0    1.263659E-03    6.051176E-03 
        ETAB   -2.195822E-03 -858.512600E-06 
         K3B   19.71403         5.01511      
        DVT2    -.3             -.067374     
        DSUB    4.891602E-03    3.642935E-03 
         AGS     .166834         .37123      
       DVT1W    0               0            
       DVT2W    0               0            
        PRWG    -.054897         .34061      
        PRWB    -.5             -.183689     
     PDIBLCB   -1.000000E-03    -.1          
         DWG  -25.031010E-09    5.313945E-09 
         DWB  -12.379610E-09   13.440770E-09 
          B0    1.874426E-06  -23.699750E-09 
          B1    5.000000E-06                 
        LINT   27.788770E-09   20.673220E-09 
        WINT                   12.447730E-09 
         DLC   27.788770E-09   20.673220E-09 
         DWC    0              12.447730E-09 
          CF    0               0            
        NOIA    9.900001E+18  100.000000E+18 
        NOIB    2.400000E+03   50.000000E+03 
        NOIC    1.400000E-12   -1.400000E-12 
       LKETA    -.010867      399.601500E-06 
       WKETA     .03239         3.401938E-03 
       PVSAT   50             790.3922       
       PKETA   -6.167985E-03    -.014873     
       PVTH0    1.001339E-03   -4.814415E-03 
         PUA  362.786900E-12  -31.414400E-12 
         PU0    7.380991       -4.028575     
       PRDSW   -5              -2.504635     
       PETA0  100.000000E-06  -67.588480E-06 
         PK2   30.964830E-06    3.159047E-03 
         VTM     .025864         .025864     
       PBSWG     .8008           .8          
       MJSWG     .1001           .163262     
       CJSWG  422.000000E-12  330.000000E-12 


Mosfet M_U5_U78_M5, model CMOSP: Using BSIM VERSION 3.1 or lower
WARNING -- Mosfet M_U5_U78_M5, model CMOSP: Pd = 0 is less than W
WARNING -- Mosfet M_U5_U78_M5, model CMOSP: Ps = 0 is less than W
Mosfet M_U5_U78_M6, model CMOSN: Using BSIM VERSION 3.1 or lower
WARNING -- Mosfet M_U5_U78_M6, model CMOSN: Pd = 0 is less than W
WARNING -- Mosfet M_U5_U78_M6, model CMOSN: Ps = 0 is less than W
**** 03/22/10 19:20:39 ******* PSpice 16.0.0 (July 2006) ****** ID# 0 ********

 ** Profile: "NDECODER-64-prueba"  [ D:\Documents\TESIS\fiocs\Design\I-DECODER-001\OrCAD\I-DECODER-6BITS\i-decoder-6bits-pspicefiles\


 ****     INITIAL TRANSIENT SOLUTION       TEMPERATURE =   27.000 DEG C


******************************************************************************



 NODE   VOLTAGE     NODE   VOLTAGE     NODE   VOLTAGE     NODE   VOLTAGE


(   X1)    3.3000  (   X2) 15.04E-06  (   X3) 15.04E-06  (  -V1)    0.0000      

(  -V2)    0.0000  (  -V4)    0.0000  (  -V6)    0.0000  (  -V8)    0.0000      

(  2SB)    3.3000  (  3SB)    3.3000  (  4SB)    3.3000  (  5SB)    3.3000      

(  LSB)    3.3000  (  MSB)    3.3000  ( -V10)    0.0000  ( -V12)    0.0000      

( -V14)    0.0000  (U5_X4) 15.04E-06  (N222458)    3.0000                       

(N222462)    3.0000                   (N222466)    3.0000                       

(N222470)    3.0000                   (N222474)    3.0000                       

(N222478)    3.0000                   (N222482)    3.0000                       

(N222486)    3.0000                   (N222490)    3.0000                       

(N222494)    3.0000                   (N222498)    3.0000                       

(U5_N245622)    3.3000                (U5_N245638)    3.3000                    

(U5_N245652)    3.3000                (U5_N245874)    3.3000                    

(U5_N245880)    3.3000                (U5_N246440) 235.0E-09                    

(U5_N246454)    3.3000                (U5_N246462)    3.3000                    

(U5_N246474)    3.3000                (U5_N246486)    3.3000                    

(U5_N246498)    3.3000                (U5_N246510)    3.3000                    

(U5_N246528)    3.3000                (U5_N265628)    3.3000                    

(U5_N265632)    3.3000                (U5_N265636)    3.3000                    

(U5_N265640)    3.3000                (U5_N265648)    3.3000                    

(U5_N265840)    3.3000                (U5_N265940)    3.3000                    

(U5_N265978)    3.3000                (U5_N265986)    3.3000                    

(U5_N265998)    3.3000                (U5_N266006)    3.3000                    

(U5_N266018)    3.3000                (U5_N266026)    3.3000                    

(U5_N266034)    3.3000                (U5_N266058)    3.3000                    

(U5_N266334)    3.3000                (U5_N266348) 235.0E-09                    

(U5_N266492) 15.04E-06                (U5_N266782)    3.3000                    

(U5_N308675)    3.3000                (U5_N308687)    3.3000                    

(U5_N308739)    3.3000                (U5_N308767)    3.3000                    

(U5_N308789)    3.3000                (U5_N308811)    3.3000                    

(U5_N308919)    3.3000                (U5_N309027)    3.3000                    

(U5_N309031)    3.3000                (U5_N309035)    3.3000                    

(U5_N309039)    3.3000                (U5_N309047)    3.3000                    

(U5_N309055)    3.3000                (U5_N309063)    3.3000                    

(U5_N309355)    3.3000                (U5_N309897)    3.3000                    

(U5_N309901)    3.3000                (U5_N309905)    3.3000                    

(U5_N309909)    3.3000                (U5_N309917)    3.3000                    

(U5_N309925)    3.3000                (U5_N309933)    3.3000                    

(U5_N310243)    3.3000                (U5_N312290)    3.3000                    

(U5_N312294)    3.3000                (U5_N312298)    3.3000                    

(U5_N312302)    3.3000                (U5_N312310)    3.3000                    

(U5_N312318)    3.3000                (U5_N312326)    3.3000                    

(U5_N312618)    3.3000                (U5_N312948) 235.0E-09                    

(U5_N312956)    3.3000                (U5_N312968)    3.3000                    

(U5_N312976)    3.3000                (U5_U2_N39991) 2.241E-06                  

(U5_U3_N39991) 2.241E-06              (U5_U4_N39991) 2.241E-06                  

(U5_U5_N39991) 2.241E-06              (U5_U6_N39991) 2.241E-06                  

(U5_U8_N88766) 6.722E-06              (U5_U8_N88906) 4.481E-06                  

(U5_U8_N88946) 2.241E-06              (U5_U10_N39991) 1.921E-06                 

(U5_U11_N39991) 2.241E-06             (U5_U12_N39991) 2.241E-06                 

(U5_U13_N39991) 2.241E-06             (U5_U14_N39991) 2.241E-06                 

(U5_U15_N39991) 2.241E-06             (U5_U16_N39991) 2.241E-06                 

(U5_U17_N66385) 13.44E-06             (U5_U17_N66425) 11.20E-06                 

(U5_U17_N66527) 2.240E-06             (U5_U17_N66937) 8.960E-06                 

(U5_U17_N67207) 6.720E-06             (U5_U17_N67213) 4.480E-06                 

(U5_U17_N67495) 15.68E-06             (U5_U21_N39991) 1.921E-06                 

(U5_U22_N39991) 1.921E-06             (U5_U23_N39991) 1.921E-06                 

(U5_U24_N39991) 2.241E-06             (U5_U25_N39991) 2.241E-06                 

(U5_U26_N39991) 2.241E-06             (U5_U27_N39991) 2.241E-06                 

(U5_U28_N66385) 13.44E-06             (U5_U28_N66425) 11.20E-06                 

(U5_U28_N66527) 2.240E-06             (U5_U28_N66937) 8.960E-06                 

(U5_U28_N67207) 6.720E-06             (U5_U28_N67213) 4.480E-06                 

(U5_U28_N67495) 15.68E-06             (U5_U30_N39991) 2.241E-06                 

(U5_U31_N39991) 2.241E-06             (U5_U32_N39991) 2.241E-06                 

(U5_U33_N39991) 2.241E-06             (U5_U34_N39991) 2.241E-06                 

(U5_U35_N39991) 2.241E-06             (U5_U36_N39991) 2.241E-06                 

(U5_U37_N66385) 11.28E-06             (U5_U37_N66425) 9.399E-06                 

(U5_U37_N66527) 1.880E-06             (U5_U37_N66937) 7.520E-06                 

(U5_U37_N67207) 5.640E-06             (U5_U37_N67213) 3.760E-06                 

(U5_U37_N67495) 13.16E-06             (U5_U38_N39991) 2.241E-06                 

(U5_U40_N39991)    2.7365             (U5_U42_N39991) 1.921E-06                 

(U5_U43_N39991) 1.921E-06             (U5_U44_N39991) 1.921E-06                 

(U5_U45_N39991) 1.921E-06             (U5_U46_N39991) 1.921E-06                 

(U5_U47_N39991) 1.921E-06             (U5_U48_N39991) 1.921E-06                 

(U5_U49_N66385) 13.44E-06             (U5_U49_N66425) 11.20E-06                 

(U5_U49_N66527) 2.240E-06             (U5_U49_N66937) 8.960E-06                 

(U5_U49_N67207) 6.720E-06             (U5_U49_N67213) 4.480E-06                 

(U5_U49_N67495) 15.68E-06             (U5_U50_N39991) 2.241E-06                 

(U5_U51_N39991) 2.241E-06             (U5_U52_N39991) 2.241E-06                 

(U5_U53_N39991) 2.241E-06             (U5_U54_N39991) 2.241E-06                 

(U5_U55_N39991) 2.241E-06             (U5_U56_N39991) 2.241E-06                 

(U5_U57_N66385) 11.28E-06             (U5_U57_N66425) 9.399E-06                 

(U5_U57_N66527) 1.880E-06             (U5_U57_N66937) 7.520E-06                 

(U5_U57_N67207) 5.640E-06             (U5_U57_N67213) 3.760E-06                 

(U5_U57_N67495) 13.16E-06             (U5_U58_N39991) 2.241E-06                 

(U5_U59_N39991) 2.241E-06             (U5_U60_N39991) 2.241E-06                 

(U5_U61_N39991) 2.241E-06             (U5_U62_N39991) 2.241E-06                 

(U5_U63_N39991) 2.241E-06             (U5_U64_N39991) 2.241E-06                 

(U5_U65_N39991) 2.241E-06             (U5_U66_N66385) 11.28E-06                 

(U5_U66_N66425) 9.399E-06             (U5_U66_N66527) 1.880E-06                 

(U5_U66_N66937) 7.520E-06             (U5_U66_N67207) 5.640E-06                 

(U5_U66_N67213) 3.760E-06             (U5_U66_N67495) 13.16E-06                 

(U5_U67_N39991) 2.241E-06             (U5_U68_N39991) 2.241E-06                 

(U5_U69_N39991) 2.241E-06             (U5_U70_N39991) 2.241E-06                 

(U5_U71_N39991) 2.241E-06             (U5_U72_N39991) 2.241E-06                 

(U5_U73_N39991) 2.241E-06             (U5_U74_N39991) 2.241E-06                 

(U5_U75_N66385) 11.28E-06             (U5_U75_N66425) 9.399E-06                 

(U5_U75_N66527) 1.880E-06             (U5_U75_N66937) 7.520E-06                 

(U5_U75_N67207) 5.640E-06             (U5_U75_N67213) 3.760E-06                 

(U5_U75_N67495) 13.16E-06             (U5_U76_N39991) 2.241E-06                 

(U5_U81_N88766) 6.722E-06             (U5_U81_N88906) 4.481E-06                 

(U5_U81_N88946) 2.241E-06             




    VOLTAGE SOURCE CURRENTS
    NAME         CURRENT

    V_VDD       -5.654E-08
    V_SENALES2_-V14   0.000E+00
    V_SENALES2_V12   0.000E+00
    V_SENALES2_V9   0.000E+00
    V_SENALES2_-V4   0.000E+00
    V_SENALES2_V1   0.000E+00
    V_SENALES2_V5   0.000E+00
    V_SENALES2_V15   0.000E+00
    V_SENALES2_-V12   0.000E+00
    V_SENALES2_V10   0.000E+00
    V_SENALES2_-V2   0.000E+00
    V_SENALES2_V13   0.000E+00
    V_SENALES2_-V10   0.000E+00
    V_SENALES2_V3   0.000E+00
    V_SENALES2_V6   0.000E+00
    V_SENALES2_V14   0.000E+00
    V_SENALES2_V11   0.000E+00
    V_SENALES2_-V8   0.000E+00
    V_SENALES2_-V6   0.000E+00
    V_SENALES2_V7   0.000E+00

    TOTAL POWER DISSIPATION   1.87E-07  WATTS



          JOB CONCLUDED

**** 03/22/10 19:20:39 ******* PSpice 16.0.0 (July 2006) ****** ID# 0 ********

 ** Profile: "NDECODER-64-prueba"  [ D:\Documents\TESIS\fiocs\Design\I-DECODER-001\OrCAD\I-DECODER-6BITS\i-decoder-6bits-pspicefiles\


 ****     JOB STATISTICS SUMMARY


******************************************************************************



  Total job time (using Solver 1)   =       35.29
