
**** 10/06/09 18:49:26 ******** PSpice Lite (Oct 2008) ******** ID# 10813 ****

 ** Profile: "FFD-transitorio"  [ D:\Documents\TESIS\TRUNK\Design\I-FFD-01\i-ffd-01-pspicefiles\ffd\transitorio.sim ] 


 ****     CIRCUIT DESCRIPTION


******************************************************************************




** Creating circuit file "transitorio.cir" 
** WARNING: THIS AUTOMATICALLY GENERATED FILE MAY BE OVERWRITTEN BY SUBSEQUENT SIMULATIONS

*Libraries: 
* Profile Libraries :
* Local Libraries :
* From [PSPICE NETLIST] section of C:\OrCAD\OrCAD_16.2\tools\PSpice\PSpice.ini file:
.lib "nomd.lib" 

*Analysis directives: 
.TRAN  0 100m 0 1m 
.PROBE V(alias(*)) I(alias(*)) W(alias(*)) D(alias(*)) NOISE(alias(*)) 
.INC "..\FFD.net" 



**** INCLUDING FFD.net ****
* source I-FFD-01
M_FFD_NOR_M4         N00157 FFD_N00859 FFD_NOR_N00319 N00647 MbreakP           
M_FFD_NOR_M1         N00157 FFD_N00859 0 0 MbreakN           
M_FFD_NOR_M2         N00157 FFD_N00807 0 0 MbreakN           
M_FFD_NOR_M3         FFD_NOR_N00319 FFD_N00807 N00647 N00647 MbreakP           
M_FFD_NAND_M1         FFD_N00565 N00541 FFD_NAND_N45225 0 MbreakN           
M_FFD_NAND_M2         FFD_NAND_N45225 N00519 FFD_NAND_N45964 0 MbreakN         
+   
M_FFD_NAND_M3         FFD_N00565 N00541 N00647 N00647 MbreakP           
M_FFD_NAND_M5         FFD_NAND_N45964 N00163 0 0 MbreakN           
M_FFD_NAND_M4         FFD_N00565 N00519 N00647 N00647 MbreakP           
M_FFD_NAND_M6         FFD_N00565 N00163 N00647 N00647 MbreakP           
M_FFD_NAND1_M1         FFD_N00591 N00157 FFD_NAND1_N45225 0 MbreakN           
M_FFD_NAND1_M2         FFD_NAND1_N45225 N00519 FFD_NAND1_N45964 0 MbreakN      
+      
M_FFD_NAND1_M3         FFD_N00591 N00157 N00647 N00647 MbreakP           
M_FFD_NAND1_M5         FFD_NAND1_N45964 0 0 0 MbreakN           
M_FFD_NAND1_M4         FFD_N00591 N00519 N00647 N00647 MbreakP           
M_FFD_NAND1_M6         FFD_N00591 0 N00647 N00647 MbreakP           
M_FFD_AND1_M6         FFD_N00859 FFD_AND1_N47705 N00647 N00647 MbreakP         
+   
M_FFD_AND1_M1         FFD_AND1_N47705 N00163 FFD_AND1_N47695 0 MbreakN         
+   
M_FFD_AND1_M2         FFD_AND1_N47695 FFD_N00565 0 0 MbreakN           
M_FFD_AND1_M5         FFD_N00859 FFD_AND1_N47705 0 0 MbreakN           
M_FFD_AND1_M3         FFD_AND1_N47705 N00163 N00647 N00647 MbreakP           
M_FFD_AND1_M4         FFD_AND1_N47705 FFD_N00565 N00647 N00647 MbreakP         
+   
M_FFD_AND_M6         FFD_N00807 FFD_AND_N47705 N00647 N00647 MbreakP           
M_FFD_AND_M1         FFD_AND_N47705 N00519 FFD_AND_N47695 0 MbreakN           
M_FFD_AND_M2         FFD_AND_N47695 N00163 0 0 MbreakN           
M_FFD_AND_M5         FFD_N00807 FFD_AND_N47705 0 0 MbreakN           
M_FFD_AND_M3         FFD_AND_N47705 N00519 N00647 N00647 MbreakP           
M_FFD_AND_M4         FFD_AND_N47705 N00163 N00647 N00647 MbreakP           
M_FFD_AND2_M6         FFD_N00657 FFD_AND2_N47705 N00647 N00647 MbreakP         
+   
M_FFD_AND2_M1         FFD_AND2_N47705 FFD_N00591 FFD_AND2_N47695 0 MbreakN     
+       
M_FFD_AND2_M2         FFD_AND2_N47695 N00157 0 0 MbreakN           
M_FFD_AND2_M5         FFD_N00657 FFD_AND2_N47705 0 0 MbreakN           
M_FFD_AND2_M3         FFD_AND2_N47705 FFD_N00591 N00647 N00647 MbreakP         
+   
M_FFD_AND2_M4         FFD_AND2_N47705 N00157 N00647 N00647 MbreakP           
M_FFD_AND3_M6         FFD_N00711 FFD_AND3_N47705 N00647 N00647 MbreakP         
+   
M_FFD_AND3_M1         FFD_AND3_N47705 N00157 FFD_AND3_N47695 0 MbreakN         
+   
M_FFD_AND3_M2         FFD_AND3_N47695 N00519 0 0 MbreakN           
M_FFD_AND3_M5         FFD_N00711 FFD_AND3_N47705 0 0 MbreakN           
M_FFD_AND3_M3         FFD_AND3_N47705 N00157 N00647 N00647 MbreakP           
M_FFD_AND3_M4         FFD_AND3_N47705 N00519 N00647 N00647 MbreakP           
M_FFD_NOR1_M4         N00163 FFD_N00711 FFD_NOR1_N00319 N00647 MbreakP         
+   
M_FFD_NOR1_M1         N00163 FFD_N00711 0 0 MbreakN           
M_FFD_NOR1_M2         N00163 FFD_N00657 0 0 MbreakN           
M_FFD_NOR1_M3         FFD_NOR1_N00319 FFD_N00657 N00647 N00647 MbreakP         
+   
V_V1         N00519 0  
+PULSE 0 5 10m 2m 2m 10m 20m
V_V3         N00647 0 5
V_V2         N00541 0  
+PULSE 0 5 20m 2m 2m 20m 40m
R_R1         N00157 0  100k TC=0,0 
R_R2         N00163 0  100k TC=0,0 

**** RESUMING transitorio.cir ****
.END

ERROR -- Circuit Too Large!
EVALUATION VERSION Limit Exceeded for "Q" Devices!


