
**** 10/13/09 11:36:01 ******* PSpice 10.5.0 (Jan 2005) ******* ID# 0 ********

 ** Profile: "S-NAND-2-bias"  [ D:\Documents\TESIS\TRUNK\Design\I-FFD\i-ffd-pspicefiles\s-nand-2\bias.sim ] 


 ****     CIRCUIT DESCRIPTION


******************************************************************************




** Creating circuit file "bias.cir" 
** WARNING: THIS AUTOMATICALLY GENERATED FILE MAY BE OVERWRITTEN BY SUBSEQUENT SIMULATIONS

*Libraries: 
* Profile Libraries :
* Local Libraries :
.LIB "../../../i-ffd-pspicefiles/i-ffd.lib" 
* From [PSPICE NETLIST] section of C:\OrCAD\OrCAD_10.5\tools\PSpice\PSpice.ini file:
.lib "nom.lib" 

*Analysis directives: 
.PROBE V(alias(*)) I(alias(*)) W(alias(*)) D(alias(*)) NOISE(alias(*)) 
.INC "..\S-NAND-2.net" 



**** INCLUDING S-NAND-2.net ****
* source I-FFD
.EXTERNAL INPUT IN1
.EXTERNAL INPUT IN2
.EXTERNAL INPUT VDD
.EXTERNAL INPUT OUT
M_M1         OUT IN1 N00209 N00209 CMOSN  
+ L=.18u  
+ W=.6u         
M_M2         N00209 IN2 IN2 IN2 CMOSN  
+ L=.18u  
+ W=.6u         
V_V2         IN1 IN2  
+PULSE 0 5 9m 1m 1m 9m 20m
R_R1         IN2 IN1  100M  
M_M3         OUT IN1 VDD VDD CMOSP  
+ L=.18u  
+ W=1.2u         
M_M4         OUT IN2 VDD VDD CMOSP  
+ L=.18u  
+ W=1.2u         
R_R2         IN2 IN2  100M  
V_V3         VDD IN2 5

**** RESUMING bias.cir ****
.END

ERROR -- Node OUT is floating
ERROR -- Node IN1 is floating
ERROR -- Node N00209 is floating
ERROR -- Node IN2 is floating
ERROR -- Node VDD is floating