
Circuit: * gnetlist -gspice-sdb -o teste.net flash.sch

Doing analysis at TEMP = 27.000000 and TNOM = 27.000000


No. of Data Rows : 1

Doing analysis at TEMP = 27.000000 and TNOM = 27.000000


Initial Transient Solution
--------------------------

Node                                   Voltage
----                                   -------
5                                    0.0426567
4                                            1
10                                    0.131856
3                                            1
8                                    0.0773301
1                                            1
6                                     0.131856
2                                            1
359                                6.16993e-06
324                                   0.999961
358                                   0.739826
76                                           0
339                                   0.999981
325                                   0.999998
25                                   0.0426567
77                                    0.108599
120                                   0.999998
144                                   0.108591
30                                    0.131856
28                                   0.0773301
202                                   0.999998
204                                8.98145e-05
212                                   0.123901
26                                    0.131856
24                                           1
277                                6.16993e-06
242                                   0.999961
276                                   0.739826
257                                   0.999981
243                                   0.999998
349                                   0.108591
122                                8.98145e-05
130                                   0.123901
45                                   0.0426567
50                                    0.131856
48                                   0.0773301
195                                6.16993e-06
160                                   0.999961
194                                   0.739826
175                                   0.999981
161                                   0.999998
46                                    0.131856
44                                           1
267                                   0.108591
327                                8.98145e-05
335                                   0.123901
113                                6.16993e-06
78                                    0.999961
112                                   0.739826
93                                    0.999981
79                                    0.999998
245                                8.98145e-05
253                                   0.123901
185                                   0.108591
65                                   0.0426567
70                                    0.131856
68                                   0.0773301
66                                    0.131856
64                                           1
318                                6.16993e-06
283                                   0.999961
317                                   0.739826
298                                   0.999981
284                                   0.999998
103                                   0.108591
163                                8.98145e-05
171                                   0.123901
308                                   0.108591
81                                 8.98145e-05
89                                    0.123901
286                                8.98145e-05
294                                   0.123901
216                                   0.999981
231                                4.55012e-06
134                                   0.999981
149                                4.55012e-06
201                                   0.999961
35                                   0.0426567
219                                   0.713739
15                                   0.0426567
20                                    0.131856
18                                   0.0773301
16                                    0.131856
14                                           1
354                                4.55012e-06
119                                   0.999961
55                                   0.0426567
137                                   0.713739
206                                4.49008e-05
272                                4.55012e-06
40                                    0.131856
38                                   0.0773301
36                                    0.131856
34                                           1
342                                   0.713739
75                                           1
124                                4.49008e-05
60                                    0.131856
58                                   0.0773301
190                                4.55012e-06
56                                    0.131856
54                                           1
260                                   0.713739
74                                           1
329                                4.49008e-05
108                                4.55012e-06
178                                   0.713739
247                                4.49008e-05
313                                4.55012e-06
96                                    0.713739
165                                4.49008e-05
301                                   0.713739
83                                 4.49008e-05
288                                4.49008e-05
236                                6.16993e-06
235                                   0.739826
154                                6.16993e-06
153                                   0.739826
226                                   0.108591
v2#branch                                    0
v1#branch                         -1.35525e-20
v3#branch                         -0.000241265
v4#branch                                    0
v5#branch                         -1.35525e-20
v6#branch                                    0


No. of Data Rows : 610

