
**** 06/04/10 20:57:28 ******* PSpice 16.0.0 (July 2006) ****** ID# 0 ********

 ** Profile: "PRUEBA-transient"  [ D:\Documents\TESIS\fiocs\Design\I-FLASH-01\OrCAD\I-FLASH-6BITS\i-flash-6bits-pspicefiles\prueba\tr


 ****     CIRCUIT DESCRIPTION


******************************************************************************




** Creating circuit file "transient.cir" 
** WARNING: THIS AUTOMATICALLY GENERATED FILE MAY BE OVERWRITTEN BY SUBSEQUENT SIMULATIONS

*Libraries: 
* Profile Libraries :
* Local Libraries :
.LIB "../../../i-flash-6bits-pspicefiles/i-flash-6bits.lib" 
* From [PSPICE NETLIST] section of C:\OrCAD\OrCAD_16.0\tools\PSpice\PSpice.ini file:
.lib "nom.lib" 

*Analysis directives: 
.TRAN  0 15n 0 10p 
.OPTIONS NODE
.OPTIONS ITL1= 300
.OPTIONS ITL2= 100
.PROBE V(alias(*)) I(alias(*)) W(alias(*)) D(alias(*)) NOISE(alias(*)) 
.INC "..\PRUEBA.net" 



**** INCLUDING PRUEBA.net ****
* source I-FLASH-6BITS
R_R6         LSB N116990  100k  
R_R7         N_MSB N116990  100k  
V_Clock         N116976 0  
+PULSE 0 3 15n 1n 1n 3n 20n
R_R8         N_5SB N116990  100k  
M_C_F_C38_M1         C_F_C38_NDNEG N117007 C_F_C38_NDBIAS 0 CMOSN  
+ L=10u  
+ W=265u         
M_C_F_C38_M2         C_F_C38_NDPOS C_N117508 C_F_C38_NDBIAS 0 CMOSN  
+ L=10u  
+ W=265u         
M_C_F_C38_M3         C_F_C38_NDNEG C_F_C38_NDNEG N116990 N116990 CMOSP  
+ L=10u  
+ W=200u         
M_C_F_C38_M12         Q38 C_F_C38_NDPOS N116990 N116990 CMOSP  
+ L=10u  
+ W=1120u         
M_C_F_C38_M4         C_F_C38_NDPOS C_F_C38_NDNEG N116990 N116990 CMOSP  
+ L=10u  
+ W=200u         
M_C_F_C38_M13         Q38 N117027 0 0 CMOSN  
+ L=16u  
+ W=215u         
M_C_F_C38_M5         C_F_C38_NDBIAS N117027 0 0 CMOSN  
+ L=12.5u  
+ W=65u         
M_C_F_C5_M1         C_F_C5_NDNEG N117007 C_F_C5_NDBIAS 0 CMOSN  
+ L=10u  
+ W=265u         
M_C_F_C5_M2         C_F_C5_NDPOS C_N117574 C_F_C5_NDBIAS 0 CMOSN  
+ L=10u  
+ W=265u         
M_C_F_C5_M3         C_F_C5_NDNEG C_F_C5_NDNEG N116990 N116990 CMOSP  
+ L=10u  
+ W=200u         
M_C_F_C5_M12         Q5 C_F_C5_NDPOS N116990 N116990 CMOSP  
+ L=10u  
+ W=1120u         
M_C_F_C5_M4         C_F_C5_NDPOS C_F_C5_NDNEG N116990 N116990 CMOSP  
+ L=10u  
+ W=200u         
M_C_F_C5_M13         Q5 N117027 0 0 CMOSN  
+ L=16u  
+ W=215u         
M_C_F_C5_M5         C_F_C5_NDBIAS N117027 0 0 CMOSN  
+ L=12.5u  
+ W=65u         
M_C_F_C25_M1         C_F_C25_NDNEG N117007 C_F_C25_NDBIAS 0 CMOSN  
+ L=10u  
+ W=265u         
M_C_F_C25_M2         C_F_C25_NDPOS C_N117534 C_F_C25_NDBIAS 0 CMOSN  
+ L=10u  
+ W=265u         
M_C_F_C25_M3         C_F_C25_NDNEG C_F_C25_NDNEG N116990 N116990 CMOSP  
+ L=10u  
+ W=200u         
M_C_F_C25_M12         Q25 C_F_C25_NDPOS N116990 N116990 CMOSP  
+ L=10u  
+ W=1120u         
M_C_F_C25_M4         C_F_C25_NDPOS C_F_C25_NDNEG N116990 N116990 CMOSP  
+ L=10u  
+ W=200u         
M_C_F_C25_M13         Q25 N117027 0 0 CMOSN  
+ L=16u  
+ W=215u         
M_C_F_C25_M5         C_F_C25_NDBIAS N117027 0 0 CMOSN  
+ L=12.5u  
+ W=65u         
M_C_F_C31_M1         C_F_C31_NDNEG N117007 C_F_C31_NDBIAS 0 CMOSN  
+ L=10u  
+ W=265u         
M_C_F_C31_M2         C_F_C31_NDPOS C_N117522 C_F_C31_NDBIAS 0 CMOSN  
+ L=10u  
+ W=265u         
M_C_F_C31_M3         C_F_C31_NDNEG C_F_C31_NDNEG N116990 N116990 CMOSP  
+ L=10u  
+ W=200u         
M_C_F_C31_M12         Q31 C_F_C31_NDPOS N116990 N116990 CMOSP  
+ L=10u  
+ W=1120u         
M_C_F_C31_M4         C_F_C31_NDPOS C_F_C31_NDNEG N116990 N116990 CMOSP  
+ L=10u  
+ W=200u         
M_C_F_C31_M13         Q31 N117027 0 0 CMOSN  
+ L=16u  
+ W=215u         
M_C_F_C31_M5         C_F_C31_NDBIAS N117027 0 0 CMOSN  
+ L=12.5u  
+ W=65u         
M_C_F_C8_M1         C_F_C8_NDNEG N117007 C_F_C8_NDBIAS 0 CMOSN  
+ L=10u  
+ W=265u         
M_C_F_C8_M2         C_F_C8_NDPOS C_N117576 C_F_C8_NDBIAS 0 CMOSN  
+ L=10u  
+ W=265u         
M_C_F_C8_M3         C_F_C8_NDNEG C_F_C8_NDNEG N116990 N116990 CMOSP  
+ L=10u  
+ W=200u         
M_C_F_C8_M12         Q8 C_F_C8_NDPOS N116990 N116990 CMOSP  
+ L=10u  
+ W=1120u         
M_C_F_C8_M4         C_F_C8_NDPOS C_F_C8_NDNEG N116990 N116990 CMOSP  
+ L=10u  
+ W=200u         
M_C_F_C8_M13         Q8 N117027 0 0 CMOSN  
+ L=16u  
+ W=215u         
M_C_F_C8_M5         C_F_C8_NDBIAS N117027 0 0 CMOSN  
+ L=12.5u  
+ W=65u         
M_C_F_C19_M1         C_F_C19_NDNEG N117007 C_F_C19_NDBIAS 0 CMOSN  
+ L=10u  
+ W=265u         
M_C_F_C19_M2         C_F_C19_NDPOS C_N117546 C_F_C19_NDBIAS 0 CMOSN  
+ L=10u  
+ W=265u         
M_C_F_C19_M3         C_F_C19_NDNEG C_F_C19_NDNEG N116990 N116990 CMOSP  
+ L=10u  
+ W=200u         
M_C_F_C19_M12         Q19 C_F_C19_NDPOS N116990 N116990 CMOSP  
+ L=10u  
+ W=1120u         
M_C_F_C19_M4         C_F_C19_NDPOS C_F_C19_NDNEG N116990 N116990 CMOSP  
+ L=10u  
+ W=200u         
M_C_F_C19_M13         Q19 N117027 0 0 CMOSN  
+ L=16u  
+ W=215u         
M_C_F_C19_M5         C_F_C19_NDBIAS N117027 0 0 CMOSN  
+ L=12.5u  
+ W=65u         
M_C_F_C2_M1         C_F_C2_NDNEG N117007 C_F_C2_NDBIAS 0 CMOSN  
+ L=10u  
+ W=265u         
M_C_F_C2_M2         C_F_C2_NDPOS C_N117564 C_F_C2_NDBIAS 0 CMOSN  
+ L=10u  
+ W=265u         
M_C_F_C2_M3         C_F_C2_NDNEG C_F_C2_NDNEG N116990 N116990 CMOSP  
+ L=10u  
+ W=200u         
M_C_F_C2_M12         Q2 C_F_C2_NDPOS N116990 N116990 CMOSP  
+ L=10u  
+ W=1120u         
M_C_F_C2_M4         C_F_C2_NDPOS C_F_C2_NDNEG N116990 N116990 CMOSP  
+ L=10u  
+ W=200u         
M_C_F_C2_M13         Q2 N117027 0 0 CMOSN  
+ L=16u  
+ W=215u         
M_C_F_C2_M5         C_F_C2_NDBIAS N117027 0 0 CMOSN  
+ L=12.5u  
+ W=65u         
M_C_F_C46_M1         C_F_C46_NDNEG N117007 C_F_C46_NDBIAS 0 CMOSN  
+ L=10u  
+ W=265u         
M_C_F_C46_M2         C_F_C46_NDPOS C_N117494 C_F_C46_NDBIAS 0 CMOSN  
+ L=10u  
+ W=265u         
M_C_F_C46_M3         C_F_C46_NDNEG C_F_C46_NDNEG N116990 N116990 CMOSP  
+ L=10u  
+ W=200u         
M_C_F_C46_M12         Q46 C_F_C46_NDPOS N116990 N116990 CMOSP  
+ L=10u  
+ W=1120u         
M_C_F_C46_M4         C_F_C46_NDPOS C_F_C46_NDNEG N116990 N116990 CMOSP  
+ L=10u  
+ W=200u         
M_C_F_C46_M13         Q46 N117027 0 0 CMOSN  
+ L=16u  
+ W=215u         
M_C_F_C46_M5         C_F_C46_NDBIAS N117027 0 0 CMOSN  
+ L=12.5u  
+ W=65u         
M_C_F_C47_M1         C_F_C47_NDNEG N117007 C_F_C47_NDBIAS 0 CMOSN  
+ L=10u  
+ W=265u         
M_C_F_C47_M2         C_F_C47_NDPOS C_N117496 C_F_C47_NDBIAS 0 CMOSN  
+ L=10u  
+ W=265u         
M_C_F_C47_M3         C_F_C47_NDNEG C_F_C47_NDNEG N116990 N116990 CMOSP  
+ L=10u  
+ W=200u         
M_C_F_C47_M12         Q47 C_F_C47_NDPOS N116990 N116990 CMOSP  
+ L=10u  
+ W=1120u         
M_C_F_C47_M4         C_F_C47_NDPOS C_F_C47_NDNEG N116990 N116990 CMOSP  
+ L=10u  
+ W=200u         
M_C_F_C47_M13         Q47 N117027 0 0 CMOSN  
+ L=16u  
+ W=215u         
M_C_F_C47_M5         C_F_C47_NDBIAS N117027 0 0 CMOSN  
+ L=12.5u  
+ W=65u         
M_C_F_C60_M1         C_F_C60_NDNEG N117007 C_F_C60_NDBIAS 0 CMOSN  
+ L=10u  
+ W=265u         
M_C_F_C60_M2         C_F_C60_NDPOS C_N119887 C_F_C60_NDBIAS 0 CMOSN  
+ L=10u  
+ W=265u         
M_C_F_C60_M3         C_F_C60_NDNEG C_F_C60_NDNEG N116990 N116990 CMOSP  
+ L=10u  
+ W=200u         
M_C_F_C60_M12         Q60 C_F_C60_NDPOS N116990 N116990 CMOSP  
+ L=10u  
+ W=1120u         
M_C_F_C60_M4         C_F_C60_NDPOS C_F_C60_NDNEG N116990 N116990 CMOSP  
+ L=10u  
+ W=200u         
M_C_F_C60_M13         Q60 N117027 0 0 CMOSN  
+ L=16u  
+ W=215u         
M_C_F_C60_M5         C_F_C60_NDBIAS N117027 0 0 CMOSN  
+ L=12.5u  
+ W=65u         
M_C_F_C45_M1         C_F_C45_NDNEG N117007 C_F_C45_NDBIAS 0 CMOSN  
+ L=10u  
+ W=265u         
M_C_F_C45_M2         C_F_C45_NDPOS C_N117492 C_F_C45_NDBIAS 0 CMOSN  
+ L=10u  
+ W=265u         
M_C_F_C45_M3         C_F_C45_NDNEG C_F_C45_NDNEG N116990 N116990 CMOSP  
+ L=10u  
+ W=200u         
M_C_F_C45_M12         Q45 C_F_C45_NDPOS N116990 N116990 CMOSP  
+ L=10u  
+ W=1120u         
M_C_F_C45_M4         C_F_C45_NDPOS C_F_C45_NDNEG N116990 N116990 CMOSP  
+ L=10u  
+ W=200u         
M_C_F_C45_M13         Q45 N117027 0 0 CMOSN  
+ L=16u  
+ W=215u         
M_C_F_C45_M5         C_F_C45_NDBIAS N117027 0 0 CMOSN  
+ L=12.5u  
+ W=65u         
M_C_F_C54_M1         C_F_C54_NDNEG N117007 C_F_C54_NDBIAS 0 CMOSN  
+ L=10u  
+ W=265u         
M_C_F_C54_M2         C_F_C54_NDPOS C_N119899 C_F_C54_NDBIAS 0 CMOSN  
+ L=10u  
+ W=265u         
M_C_F_C54_M3         C_F_C54_NDNEG C_F_C54_NDNEG N116990 N116990 CMOSP  
+ L=10u  
+ W=200u         
M_C_F_C54_M12         Q54 C_F_C54_NDPOS N116990 N116990 CMOSP  
+ L=10u  
+ W=1120u         
M_C_F_C54_M4         C_F_C54_NDPOS C_F_C54_NDNEG N116990 N116990 CMOSP  
+ L=10u  
+ W=200u         
M_C_F_C54_M13         Q54 N117027 0 0 CMOSN  
+ L=16u  
+ W=215u         
M_C_F_C54_M5         C_F_C54_NDBIAS N117027 0 0 CMOSN  
+ L=12.5u  
+ W=65u         
M_C_F_C34_M1         C_F_C34_NDNEG N117007 C_F_C34_NDBIAS 0 CMOSN  
+ L=10u  
+ W=265u         
M_C_F_C34_M2         C_F_C34_NDPOS C_N117516 C_F_C34_NDBIAS 0 CMOSN  
+ L=10u  
+ W=265u         
M_C_F_C34_M3         C_F_C34_NDNEG C_F_C34_NDNEG N116990 N116990 CMOSP  
+ L=10u  
+ W=200u         
M_C_F_C34_M12         Q34 C_F_C34_NDPOS N116990 N116990 CMOSP  
+ L=10u  
+ W=1120u         
M_C_F_C34_M4         C_F_C34_NDPOS C_F_C34_NDNEG N116990 N116990 CMOSP  
+ L=10u  
+ W=200u         
M_C_F_C34_M13         Q34 N117027 0 0 CMOSN  
+ L=16u  
+ W=215u         
M_C_F_C34_M5         C_F_C34_NDBIAS N117027 0 0 CMOSN  
+ L=12.5u  
+ W=65u         
M_C_F_C26_M1         C_F_C26_NDNEG N117007 C_F_C26_NDBIAS 0 CMOSN  
+ L=10u  
+ W=265u         
M_C_F_C26_M2         C_F_C26_NDPOS C_N117536 C_F_C26_NDBIAS 0 CMOSN  
+ L=10u  
+ W=265u         
M_C_F_C26_M3         C_F_C26_NDNEG C_F_C26_NDNEG N116990 N116990 CMOSP  
+ L=10u  
+ W=200u         
M_C_F_C26_M12         Q26 C_F_C26_NDPOS N116990 N116990 CMOSP  
+ L=10u  
+ W=1120u         
M_C_F_C26_M4         C_F_C26_NDPOS C_F_C26_NDNEG N116990 N116990 CMOSP  
+ L=10u  
+ W=200u         
M_C_F_C26_M13         Q26 N117027 0 0 CMOSN  
+ L=16u  
+ W=215u         
M_C_F_C26_M5         C_F_C26_NDBIAS N117027 0 0 CMOSN  
+ L=12.5u  
+ W=65u         
M_C_F_C48_M1         C_F_C48_NDNEG N117007 C_F_C48_NDBIAS 0 CMOSN  
+ L=10u  
+ W=265u         
M_C_F_C48_M2         C_F_C48_NDPOS C_N117498 C_F_C48_NDBIAS 0 CMOSN  
+ L=10u  
+ W=265u         
M_C_F_C48_M3         C_F_C48_NDNEG C_F_C48_NDNEG N116990 N116990 CMOSP  
+ L=10u  
+ W=200u         
M_C_F_C48_M12         Q48 C_F_C48_NDPOS N116990 N116990 CMOSP  
+ L=10u  
+ W=1120u         
M_C_F_C48_M4         C_F_C48_NDPOS C_F_C48_NDNEG N116990 N116990 CMOSP  
+ L=10u  
+ W=200u         
M_C_F_C48_M13         Q48 N117027 0 0 CMOSN  
+ L=16u  
+ W=215u         
M_C_F_C48_M5         C_F_C48_NDBIAS N117027 0 0 CMOSN  
+ L=12.5u  
+ W=65u         
M_C_F_C44_M1         C_F_C44_NDNEG N117007 C_F_C44_NDBIAS 0 CMOSN  
+ L=10u  
+ W=265u         
M_C_F_C44_M2         C_F_C44_NDPOS C_N117490 C_F_C44_NDBIAS 0 CMOSN  
+ L=10u  
+ W=265u         
M_C_F_C44_M3         C_F_C44_NDNEG C_F_C44_NDNEG N116990 N116990 CMOSP  
+ L=10u  
+ W=200u         
M_C_F_C44_M12         Q44 C_F_C44_NDPOS N116990 N116990 CMOSP  
+ L=10u  
+ W=1120u         
M_C_F_C44_M4         C_F_C44_NDPOS C_F_C44_NDNEG N116990 N116990 CMOSP  
+ L=10u  
+ W=200u         
M_C_F_C44_M13         Q44 N117027 0 0 CMOSN  
+ L=16u  
+ W=215u         
M_C_F_C44_M5         C_F_C44_NDBIAS N117027 0 0 CMOSN  
+ L=12.5u  
+ W=65u         
M_C_F_C7_M1         C_F_C7_NDNEG N117007 C_F_C7_NDBIAS 0 CMOSN  
+ L=10u  
+ W=265u         
M_C_F_C7_M2         C_F_C7_NDPOS C_N117570 C_F_C7_NDBIAS 0 CMOSN  
+ L=10u  
+ W=265u         
M_C_F_C7_M3         C_F_C7_NDNEG C_F_C7_NDNEG N116990 N116990 CMOSP  
+ L=10u  
+ W=200u         
M_C_F_C7_M12         Q7 C_F_C7_NDPOS N116990 N116990 CMOSP  
+ L=10u  
+ W=1120u         
M_C_F_C7_M4         C_F_C7_NDPOS C_F_C7_NDNEG N116990 N116990 CMOSP  
+ L=10u  
+ W=200u         
M_C_F_C7_M13         Q7 N117027 0 0 CMOSN  
+ L=16u  
+ W=215u         
M_C_F_C7_M5         C_F_C7_NDBIAS N117027 0 0 CMOSN  
+ L=12.5u  
+ W=65u         
M_C_F_C18_M1         C_F_C18_NDNEG N117007 C_F_C18_NDBIAS 0 CMOSN  
+ L=10u  
+ W=265u         
M_C_F_C18_M2         C_F_C18_NDPOS C_N117548 C_F_C18_NDBIAS 0 CMOSN  
+ L=10u  
+ W=265u         
M_C_F_C18_M3         C_F_C18_NDNEG C_F_C18_NDNEG N116990 N116990 CMOSP  
+ L=10u  
+ W=200u         
M_C_F_C18_M12         Q18 C_F_C18_NDPOS N116990 N116990 CMOSP  
+ L=10u  
+ W=1120u         
M_C_F_C18_M4         C_F_C18_NDPOS C_F_C18_NDNEG N116990 N116990 CMOSP  
+ L=10u  
+ W=200u         
M_C_F_C18_M13         Q18 N117027 0 0 CMOSN  
+ L=16u  
+ W=215u         
M_C_F_C18_M5         C_F_C18_NDBIAS N117027 0 0 CMOSN  
+ L=12.5u  
+ W=65u         
M_C_F_R6_NAND6_M5         C_F_R6_N62152 C_F_R6_Y N116990 N116990 CMOSP  
+ L=.186u  
+ W=.25u         
M_C_F_R6_NAND6_M6         C_F_R6_N62152 C_F_R6_Y C_F_R6_NAND6_ND2 0 CMOSN  
+ L=.2u  
+ W=.232u         
M_C_F_R6_NAND6_M2         C_F_R6_NAND6_ND2 C_F_C32_MSB 0 0 CMOSN  
+ L=.2u  
+ W=.232u         
M_C_F_R6_NAND6_M4         C_F_R6_N62152 C_F_C32_MSB N116990 N116990 CMOSP  
+ L=.186u  
+ W=.25u         
M_C_F_R6_NAND1_M2         C_F_R6_NAND1_ND2 N116976 C_F_R6_NAND1_ND3 0 CMOSN  
+ L=.18u  
+ W=.37u         
M_C_F_R6_NAND1_M3         C_F_R6_Y C_F_R6_X N116990 N116990 CMOSP  
+ L=.25u  
+ W=.26u         
M_C_F_R6_NAND1_M6         C_F_R6_NAND1_ND3 C_F_R6_N62152 0 0 CMOSN  
+ L=.18u  
+ W=.37u         
M_C_F_R6_NAND1_M4         C_F_R6_Y N116976 N116990 N116990 CMOSP  
+ L=.25u  
+ W=.26u         
M_C_F_R6_NAND1_M1         C_F_R6_Y C_F_R6_X C_F_R6_NAND1_ND2 0 CMOSN  
+ L=.18u  
+ W=.37u         
M_C_F_R6_NAND1_M5         C_F_R6_Y C_F_R6_N62152 N116990 N116990 CMOSP  
+ L=.25u  
+ W=.26u         
M_C_F_R6_NAND2_M5         C_F_R6_N62128 C_F_R6_N62152 N116990 N116990 CMOSP  
+ L=.186u  
+ W=.25u         
M_C_F_R6_NAND2_M6         C_F_R6_N62128 C_F_R6_N62152 C_F_R6_NAND2_ND2 0 CMOSN 
+  
+ L=.2u  
+ W=.232u         
M_C_F_R6_NAND2_M2         C_F_R6_NAND2_ND2 C_F_R6_X 0 0 CMOSN  
+ L=.2u  
+ W=.232u         
M_C_F_R6_NAND2_M4         C_F_R6_N62128 C_F_R6_X N116990 N116990 CMOSP  
+ L=.186u  
+ W=.25u         
M_C_F_R6_NAND3_M5         C_F_R6_X C_F_R6_N62128 N116990 N116990 CMOSP  
+ L=.186u  
+ W=.25u         
M_C_F_R6_NAND3_M6         C_F_R6_X C_F_R6_N62128 C_F_R6_NAND3_ND2 0 CMOSN  
+ L=.2u  
+ W=.232u         
M_C_F_R6_NAND3_M2         C_F_R6_NAND3_ND2 N116976 0 0 CMOSN  
+ L=.2u  
+ W=.232u         
M_C_F_R6_NAND3_M4         C_F_R6_X N116976 N116990 N116990 CMOSP  
+ L=.186u  
+ W=.25u         
M_C_F_R6_NAND4_M5         MSB C_F_R6_X N116990 N116990 CMOSP  
+ L=.186u  
+ W=.25u         
M_C_F_R6_NAND4_M6         MSB C_F_R6_X C_F_R6_NAND4_ND2 0 CMOSN  
+ L=.2u  
+ W=.232u         
M_C_F_R6_NAND4_M2         C_F_R6_NAND4_ND2 N_MSB 0 0 CMOSN  
+ L=.2u  
+ W=.232u         
M_C_F_R6_NAND4_M4         MSB N_MSB N116990 N116990 CMOSP  
+ L=.186u  
+ W=.25u         
M_C_F_R6_NAND5_M5         N_MSB MSB N116990 N116990 CMOSP  
+ L=.186u  
+ W=.25u         
M_C_F_R6_NAND5_M6         N_MSB MSB C_F_R6_NAND5_ND2 0 CMOSN  
+ L=.2u  
+ W=.232u         
M_C_F_R6_NAND5_M2         C_F_R6_NAND5_ND2 C_F_R6_Y 0 0 CMOSN  
+ L=.2u  
+ W=.232u         
M_C_F_R6_NAND5_M4         N_MSB C_F_R6_Y N116990 N116990 CMOSP  
+ L=.186u  
+ W=.25u         
M_C_F_C4_M1         C_F_C4_NDNEG N117007 C_F_C4_NDBIAS 0 CMOSN  
+ L=10u  
+ W=265u         
M_C_F_C4_M2         C_F_C4_NDPOS C_N117566 C_F_C4_NDBIAS 0 CMOSN  
+ L=10u  
+ W=265u         
M_C_F_C4_M3         C_F_C4_NDNEG C_F_C4_NDNEG N116990 N116990 CMOSP  
+ L=10u  
+ W=200u         
M_C_F_C4_M12         Q4 C_F_C4_NDPOS N116990 N116990 CMOSP  
+ L=10u  
+ W=1120u         
M_C_F_C4_M4         C_F_C4_NDPOS C_F_C4_NDNEG N116990 N116990 CMOSP  
+ L=10u  
+ W=200u         
M_C_F_C4_M13         Q4 N117027 0 0 CMOSN  
+ L=16u  
+ W=215u         
M_C_F_C4_M5         C_F_C4_NDBIAS N117027 0 0 CMOSN  
+ L=12.5u  
+ W=65u         
M_C_F_C49_M1         C_F_C49_NDNEG N117007 C_F_C49_NDBIAS 0 CMOSN  
+ L=10u  
+ W=265u         
M_C_F_C49_M2         C_F_C49_NDPOS C_N117500 C_F_C49_NDBIAS 0 CMOSN  
+ L=10u  
+ W=265u         
M_C_F_C49_M3         C_F_C49_NDNEG C_F_C49_NDNEG N116990 N116990 CMOSP  
+ L=10u  
+ W=200u         
M_C_F_C49_M12         Q49 C_F_C49_NDPOS N116990 N116990 CMOSP  
+ L=10u  
+ W=1120u         
M_C_F_C49_M4         C_F_C49_NDPOS C_F_C49_NDNEG N116990 N116990 CMOSP  
+ L=10u  
+ W=200u         
M_C_F_C49_M13         Q49 N117027 0 0 CMOSN  
+ L=16u  
+ W=215u         
M_C_F_C49_M5         C_F_C49_NDBIAS N117027 0 0 CMOSN  
+ L=12.5u  
+ W=65u         
M_C_F_C43_M1         C_F_C43_NDNEG N117007 C_F_C43_NDBIAS 0 CMOSN  
+ L=10u  
+ W=265u         
M_C_F_C43_M2         C_F_C43_NDPOS C_N117488 C_F_C43_NDBIAS 0 CMOSN  
+ L=10u  
+ W=265u         
M_C_F_C43_M3         C_F_C43_NDNEG C_F_C43_NDNEG N116990 N116990 CMOSP  
+ L=10u  
+ W=200u         
M_C_F_C43_M12         Q43 C_F_C43_NDPOS N116990 N116990 CMOSP  
+ L=10u  
+ W=1120u         
M_C_F_C43_M4         C_F_C43_NDPOS C_F_C43_NDNEG N116990 N116990 CMOSP  
+ L=10u  
+ W=200u         
M_C_F_C43_M13         Q43 N117027 0 0 CMOSN  
+ L=16u  
+ W=215u         
M_C_F_C43_M5         C_F_C43_NDBIAS N117027 0 0 CMOSN  
+ L=12.5u  
+ W=65u         
M_C_F_C37_M1         C_F_C37_NDNEG N117007 C_F_C37_NDBIAS 0 CMOSN  
+ L=10u  
+ W=265u         
M_C_F_C37_M2         C_F_C37_NDPOS C_N117510 C_F_C37_NDBIAS 0 CMOSN  
+ L=10u  
+ W=265u         
M_C_F_C37_M3         C_F_C37_NDNEG C_F_C37_NDNEG N116990 N116990 CMOSP  
+ L=10u  
+ W=200u         
M_C_F_C37_M12         Q37 C_F_C37_NDPOS N116990 N116990 CMOSP  
+ L=10u  
+ W=1120u         
M_C_F_C37_M4         C_F_C37_NDPOS C_F_C37_NDNEG N116990 N116990 CMOSP  
+ L=10u  
+ W=200u         
M_C_F_C37_M13         Q37 N117027 0 0 CMOSN  
+ L=16u  
+ W=215u         
M_C_F_C37_M5         C_F_C37_NDBIAS N117027 0 0 CMOSN  
+ L=12.5u  
+ W=65u         
M_C_F_C27_M1         C_F_C27_NDNEG N117007 C_F_C27_NDBIAS 0 CMOSN  
+ L=10u  
+ W=265u         
M_C_F_C27_M2         C_F_C27_NDPOS C_N117538 C_F_C27_NDBIAS 0 CMOSN  
+ L=10u  
+ W=265u         
M_C_F_C27_M3         C_F_C27_NDNEG C_F_C27_NDNEG N116990 N116990 CMOSP  
+ L=10u  
+ W=200u         
M_C_F_C27_M12         Q27 C_F_C27_NDPOS N116990 N116990 CMOSP  
+ L=10u  
+ W=1120u         
M_C_F_C27_M4         C_F_C27_NDPOS C_F_C27_NDNEG N116990 N116990 CMOSP  
+ L=10u  
+ W=200u         
M_C_F_C27_M13         Q27 N117027 0 0 CMOSN  
+ L=16u  
+ W=215u         
M_C_F_C27_M5         C_F_C27_NDBIAS N117027 0 0 CMOSN  
+ L=12.5u  
+ W=65u         
M_C_F_R3_NAND6_M5         C_F_R3_N62152 C_F_R3_Y N116990 N116990 CMOSP  
+ L=.186u  
+ W=.25u         
M_C_F_R3_NAND6_M6         C_F_R3_N62152 C_F_R3_Y C_F_R3_NAND6_ND2 0 CMOSN  
+ L=.2u  
+ W=.232u         
M_C_F_R3_NAND6_M2         C_F_R3_NAND6_ND2 C_F_D_3SB 0 0 CMOSN  
+ L=.2u  
+ W=.232u         
M_C_F_R3_NAND6_M4         C_F_R3_N62152 C_F_D_3SB N116990 N116990 CMOSP  
+ L=.186u  
+ W=.25u         
M_C_F_R3_NAND1_M2         C_F_R3_NAND1_ND2 N116976 C_F_R3_NAND1_ND3 0 CMOSN  
+ L=.18u  
+ W=.37u         
M_C_F_R3_NAND1_M3         C_F_R3_Y C_F_R3_X N116990 N116990 CMOSP  
+ L=.25u  
+ W=.26u         
M_C_F_R3_NAND1_M6         C_F_R3_NAND1_ND3 C_F_R3_N62152 0 0 CMOSN  
+ L=.18u  
+ W=.37u         
M_C_F_R3_NAND1_M4         C_F_R3_Y N116976 N116990 N116990 CMOSP  
+ L=.25u  
+ W=.26u         
M_C_F_R3_NAND1_M1         C_F_R3_Y C_F_R3_X C_F_R3_NAND1_ND2 0 CMOSN  
+ L=.18u  
+ W=.37u         
M_C_F_R3_NAND1_M5         C_F_R3_Y C_F_R3_N62152 N116990 N116990 CMOSP  
+ L=.25u  
+ W=.26u         
M_C_F_R3_NAND2_M5         C_F_R3_N62128 C_F_R3_N62152 N116990 N116990 CMOSP  
+ L=.186u  
+ W=.25u         
M_C_F_R3_NAND2_M6         C_F_R3_N62128 C_F_R3_N62152 C_F_R3_NAND2_ND2 0 CMOSN 
+  
+ L=.2u  
+ W=.232u         
M_C_F_R3_NAND2_M2         C_F_R3_NAND2_ND2 C_F_R3_X 0 0 CMOSN  
+ L=.2u  
+ W=.232u         
M_C_F_R3_NAND2_M4         C_F_R3_N62128 C_F_R3_X N116990 N116990 CMOSP  
+ L=.186u  
+ W=.25u         
M_C_F_R3_NAND3_M5         C_F_R3_X C_F_R3_N62128 N116990 N116990 CMOSP  
+ L=.186u  
+ W=.25u         
M_C_F_R3_NAND3_M6         C_F_R3_X C_F_R3_N62128 C_F_R3_NAND3_ND2 0 CMOSN  
+ L=.2u  
+ W=.232u         
M_C_F_R3_NAND3_M2         C_F_R3_NAND3_ND2 N116976 0 0 CMOSN  
+ L=.2u  
+ W=.232u         
M_C_F_R3_NAND3_M4         C_F_R3_X N116976 N116990 N116990 CMOSP  
+ L=.186u  
+ W=.25u         
M_C_F_R3_NAND4_M5         3SB C_F_R3_X N116990 N116990 CMOSP  
+ L=.186u  
+ W=.25u         
M_C_F_R3_NAND4_M6         3SB C_F_R3_X C_F_R3_NAND4_ND2 0 CMOSN  
+ L=.2u  
+ W=.232u         
M_C_F_R3_NAND4_M2         C_F_R3_NAND4_ND2 N_3SB 0 0 CMOSN  
+ L=.2u  
+ W=.232u         
M_C_F_R3_NAND4_M4         3SB N_3SB N116990 N116990 CMOSP  
+ L=.186u  
+ W=.25u         
M_C_F_R3_NAND5_M5         N_3SB 3SB N116990 N116990 CMOSP  
+ L=.186u  
+ W=.25u         
M_C_F_R3_NAND5_M6         N_3SB 3SB C_F_R3_NAND5_ND2 0 CMOSN  
+ L=.2u  
+ W=.232u         
M_C_F_R3_NAND5_M2         C_F_R3_NAND5_ND2 C_F_R3_Y 0 0 CMOSN  
+ L=.2u  
+ W=.232u         
M_C_F_R3_NAND5_M4         N_3SB C_F_R3_Y N116990 N116990 CMOSP  
+ L=.186u  
+ W=.25u         
M_C_F_C32_M1         C_F_C32_NDNEG N117007 C_F_C32_NDBIAS 0 CMOSN  
+ L=10u  
+ W=265u         
M_C_F_C32_M2         C_F_C32_NDPOS C_N117520 C_F_C32_NDBIAS 0 CMOSN  
+ L=10u  
+ W=265u         
M_C_F_C32_M3         C_F_C32_NDNEG C_F_C32_NDNEG N116990 N116990 CMOSP  
+ L=10u  
+ W=200u         
M_C_F_C32_M12         C_F_C32_MSB C_F_C32_NDPOS N116990 N116990 CMOSP  
+ L=10u  
+ W=1120u         
M_C_F_C32_M4         C_F_C32_NDPOS C_F_C32_NDNEG N116990 N116990 CMOSP  
+ L=10u  
+ W=200u         
M_C_F_C32_M13         C_F_C32_MSB N117027 0 0 CMOSN  
+ L=16u  
+ W=215u         
M_C_F_C32_M5         C_F_C32_NDBIAS N117027 0 0 CMOSN  
+ L=12.5u  
+ W=65u         
M_C_F_C58_M1         C_F_C58_NDNEG N117007 C_F_C58_NDBIAS 0 CMOSN  
+ L=10u  
+ W=265u         
M_C_F_C58_M2         C_F_C58_NDPOS C_N119891 C_F_C58_NDBIAS 0 CMOSN  
+ L=10u  
+ W=265u         
M_C_F_C58_M3         C_F_C58_NDNEG C_F_C58_NDNEG N116990 N116990 CMOSP  
+ L=10u  
+ W=200u         
M_C_F_C58_M12         Q58 C_F_C58_NDPOS N116990 N116990 CMOSP  
+ L=10u  
+ W=1120u         
M_C_F_C58_M4         C_F_C58_NDPOS C_F_C58_NDNEG N116990 N116990 CMOSP  
+ L=10u  
+ W=200u         
M_C_F_C58_M13         Q58 N117027 0 0 CMOSN  
+ L=16u  
+ W=215u         
M_C_F_C58_M5         C_F_C58_NDBIAS N117027 0 0 CMOSN  
+ L=12.5u  
+ W=65u         
M_C_F_C17_M1         C_F_C17_NDNEG N117007 C_F_C17_NDBIAS 0 CMOSN  
+ L=10u  
+ W=265u         
M_C_F_C17_M2         C_F_C17_NDPOS C_N117550 C_F_C17_NDBIAS 0 CMOSN  
+ L=10u  
+ W=265u         
M_C_F_C17_M3         C_F_C17_NDNEG C_F_C17_NDNEG N116990 N116990 CMOSP  
+ L=10u  
+ W=200u         
M_C_F_C17_M12         Q17 C_F_C17_NDPOS N116990 N116990 CMOSP  
+ L=10u  
+ W=1120u         
M_C_F_C17_M4         C_F_C17_NDPOS C_F_C17_NDNEG N116990 N116990 CMOSP  
+ L=10u  
+ W=200u         
M_C_F_C17_M13         Q17 N117027 0 0 CMOSN  
+ L=16u  
+ W=215u         
M_C_F_C17_M5         C_F_C17_NDBIAS N117027 0 0 CMOSN  
+ L=12.5u  
+ W=65u         
M_C_F_C42_M1         C_F_C42_NDNEG N117007 C_F_C42_NDBIAS 0 CMOSN  
+ L=10u  
+ W=265u         
M_C_F_C42_M2         C_F_C42_NDPOS C_N117486 C_F_C42_NDBIAS 0 CMOSN  
+ L=10u  
+ W=265u         
M_C_F_C42_M3         C_F_C42_NDNEG C_F_C42_NDNEG N116990 N116990 CMOSP  
+ L=10u  
+ W=200u         
M_C_F_C42_M12         Q42 C_F_C42_NDPOS N116990 N116990 CMOSP  
+ L=10u  
+ W=1120u         
M_C_F_C42_M4         C_F_C42_NDPOS C_F_C42_NDNEG N116990 N116990 CMOSP  
+ L=10u  
+ W=200u         
M_C_F_C42_M13         Q42 N117027 0 0 CMOSN  
+ L=16u  
+ W=215u         
M_C_F_C42_M5         C_F_C42_NDBIAS N117027 0 0 CMOSN  
+ L=12.5u  
+ W=65u         
M_C_F_C50_M1         C_F_C50_NDNEG N117007 C_F_C50_NDBIAS 0 CMOSN  
+ L=10u  
+ W=265u         
M_C_F_C50_M2         C_F_C50_NDPOS C_N119903 C_F_C50_NDBIAS 0 CMOSN  
+ L=10u  
+ W=265u         
M_C_F_C50_M3         C_F_C50_NDNEG C_F_C50_NDNEG N116990 N116990 CMOSP  
+ L=10u  
+ W=200u         
M_C_F_C50_M12         Q50 C_F_C50_NDPOS N116990 N116990 CMOSP  
+ L=10u  
+ W=1120u         
M_C_F_C50_M4         C_F_C50_NDPOS C_F_C50_NDNEG N116990 N116990 CMOSP  
+ L=10u  
+ W=200u         
M_C_F_C50_M13         Q50 N117027 0 0 CMOSN  
+ L=16u  
+ W=215u         
M_C_F_C50_M5         C_F_C50_NDBIAS N117027 0 0 CMOSN  
+ L=12.5u  
+ W=65u         
M_C_F_C55_M1         C_F_C55_NDNEG N117007 C_F_C55_NDBIAS 0 CMOSN  
+ L=10u  
+ W=265u         
M_C_F_C55_M2         C_F_C55_NDPOS C_N119897 C_F_C55_NDBIAS 0 CMOSN  
+ L=10u  
+ W=265u         
M_C_F_C55_M3         C_F_C55_NDNEG C_F_C55_NDNEG N116990 N116990 CMOSP  
+ L=10u  
+ W=200u         
M_C_F_C55_M12         Q55 C_F_C55_NDPOS N116990 N116990 CMOSP  
+ L=10u  
+ W=1120u         
M_C_F_C55_M4         C_F_C55_NDPOS C_F_C55_NDNEG N116990 N116990 CMOSP  
+ L=10u  
+ W=200u         
M_C_F_C55_M13         Q55 N117027 0 0 CMOSN  
+ L=16u  
+ W=215u         
M_C_F_C55_M5         C_F_C55_NDBIAS N117027 0 0 CMOSN  
+ L=12.5u  
+ W=65u         
M_C_F_C3_M1         C_F_C3_NDNEG N117007 C_F_C3_NDBIAS 0 CMOSN  
+ L=10u  
+ W=265u         
M_C_F_C3_M2         C_F_C3_NDPOS C_N117568 C_F_C3_NDBIAS 0 CMOSN  
+ L=10u  
+ W=265u         
M_C_F_C3_M3         C_F_C3_NDNEG C_F_C3_NDNEG N116990 N116990 CMOSP  
+ L=10u  
+ W=200u         
M_C_F_C3_M12         Q3 C_F_C3_NDPOS N116990 N116990 CMOSP  
+ L=10u  
+ W=1120u         
M_C_F_C3_M4         C_F_C3_NDPOS C_F_C3_NDNEG N116990 N116990 CMOSP  
+ L=10u  
+ W=200u         
M_C_F_C3_M13         Q3 N117027 0 0 CMOSN  
+ L=16u  
+ W=215u         
M_C_F_C3_M5         C_F_C3_NDBIAS N117027 0 0 CMOSN  
+ L=12.5u  
+ W=65u         
M_C_F_C28_M1         C_F_C28_NDNEG N117007 C_F_C28_NDBIAS 0 CMOSN  
+ L=10u  
+ W=265u         
M_C_F_C28_M2         C_F_C28_NDPOS C_N117540 C_F_C28_NDBIAS 0 CMOSN  
+ L=10u  
+ W=265u         
M_C_F_C28_M3         C_F_C28_NDNEG C_F_C28_NDNEG N116990 N116990 CMOSP  
+ L=10u  
+ W=200u         
M_C_F_C28_M12         Q28 C_F_C28_NDPOS N116990 N116990 CMOSP  
+ L=10u  
+ W=1120u         
M_C_F_C28_M4         C_F_C28_NDPOS C_F_C28_NDNEG N116990 N116990 CMOSP  
+ L=10u  
+ W=200u         
M_C_F_C28_M13         Q28 N117027 0 0 CMOSN  
+ L=16u  
+ W=215u         
M_C_F_C28_M5         C_F_C28_NDBIAS N117027 0 0 CMOSN  
+ L=12.5u  
+ W=65u         
M_C_F_C63_M1         C_F_C63_NDNEG N117007 C_F_C63_NDBIAS 0 CMOSN  
+ L=10u  
+ W=265u         
M_C_F_C63_M2         C_F_C63_NDPOS C_N119881 C_F_C63_NDBIAS 0 CMOSN  
+ L=10u  
+ W=265u         
M_C_F_C63_M3         C_F_C63_NDNEG C_F_C63_NDNEG N116990 N116990 CMOSP  
+ L=10u  
+ W=200u         
M_C_F_C63_M12         Q63 C_F_C63_NDPOS N116990 N116990 CMOSP  
+ L=10u  
+ W=1120u         
M_C_F_C63_M4         C_F_C63_NDPOS C_F_C63_NDNEG N116990 N116990 CMOSP  
+ L=10u  
+ W=200u         
M_C_F_C63_M13         Q63 N117027 0 0 CMOSN  
+ L=16u  
+ W=215u         
M_C_F_C63_M5         C_F_C63_NDBIAS N117027 0 0 CMOSN  
+ L=12.5u  
+ W=65u         
M_C_F_C41_M1         C_F_C41_NDNEG N117007 C_F_C41_NDBIAS 0 CMOSN  
+ L=10u  
+ W=265u         
M_C_F_C41_M2         C_F_C41_NDPOS C_N117502 C_F_C41_NDBIAS 0 CMOSN  
+ L=10u  
+ W=265u         
M_C_F_C41_M3         C_F_C41_NDNEG C_F_C41_NDNEG N116990 N116990 CMOSP  
+ L=10u  
+ W=200u         
M_C_F_C41_M12         Q41 C_F_C41_NDPOS N116990 N116990 CMOSP  
+ L=10u  
+ W=1120u         
M_C_F_C41_M4         C_F_C41_NDPOS C_F_C41_NDNEG N116990 N116990 CMOSP  
+ L=10u  
+ W=200u         
M_C_F_C41_M13         Q41 N117027 0 0 CMOSN  
+ L=16u  
+ W=215u         
M_C_F_C41_M5         C_F_C41_NDBIAS N117027 0 0 CMOSN  
+ L=12.5u  
+ W=65u         
M_C_F_C33_M1         C_F_C33_NDNEG N117007 C_F_C33_NDBIAS 0 CMOSN  
+ L=10u  
+ W=265u         
M_C_F_C33_M2         C_F_C33_NDPOS C_N117518 C_F_C33_NDBIAS 0 CMOSN  
+ L=10u  
+ W=265u         
M_C_F_C33_M3         C_F_C33_NDNEG C_F_C33_NDNEG N116990 N116990 CMOSP  
+ L=10u  
+ W=200u         
M_C_F_C33_M12         Q33 C_F_C33_NDPOS N116990 N116990 CMOSP  
+ L=10u  
+ W=1120u         
M_C_F_C33_M4         C_F_C33_NDPOS C_F_C33_NDNEG N116990 N116990 CMOSP  
+ L=10u  
+ W=200u         
M_C_F_C33_M13         Q33 N117027 0 0 CMOSN  
+ L=16u  
+ W=215u         
M_C_F_C33_M5         C_F_C33_NDBIAS N117027 0 0 CMOSN  
+ L=12.5u  
+ W=65u         
M_C_F_C51_M1         C_F_C51_NDNEG N117007 C_F_C51_NDBIAS 0 CMOSN  
+ L=10u  
+ W=265u         
M_C_F_C51_M2         C_F_C51_NDPOS C_N119905 C_F_C51_NDBIAS 0 CMOSN  
+ L=10u  
+ W=265u         
M_C_F_C51_M3         C_F_C51_NDNEG C_F_C51_NDNEG N116990 N116990 CMOSP  
+ L=10u  
+ W=200u         
M_C_F_C51_M12         Q51 C_F_C51_NDPOS N116990 N116990 CMOSP  
+ L=10u  
+ W=1120u         
M_C_F_C51_M4         C_F_C51_NDPOS C_F_C51_NDNEG N116990 N116990 CMOSP  
+ L=10u  
+ W=200u         
M_C_F_C51_M13         Q51 N117027 0 0 CMOSN  
+ L=16u  
+ W=215u         
M_C_F_C51_M5         C_F_C51_NDBIAS N117027 0 0 CMOSN  
+ L=12.5u  
+ W=65u         
M_C_F_C36_M1         C_F_C36_NDNEG N117007 C_F_C36_NDBIAS 0 CMOSN  
+ L=10u  
+ W=265u         
M_C_F_C36_M2         C_F_C36_NDPOS C_N117512 C_F_C36_NDBIAS 0 CMOSN  
+ L=10u  
+ W=265u         
M_C_F_C36_M3         C_F_C36_NDNEG C_F_C36_NDNEG N116990 N116990 CMOSP  
+ L=10u  
+ W=200u         
M_C_F_C36_M12         Q36 C_F_C36_NDPOS N116990 N116990 CMOSP  
+ L=10u  
+ W=1120u         
M_C_F_C36_M4         C_F_C36_NDPOS C_F_C36_NDNEG N116990 N116990 CMOSP  
+ L=10u  
+ W=200u         
M_C_F_C36_M13         Q36 N117027 0 0 CMOSN  
+ L=16u  
+ W=215u         
M_C_F_C36_M5         C_F_C36_NDBIAS N117027 0 0 CMOSN  
+ L=12.5u  
+ W=65u         
M_C_F_C61_M1         C_F_C61_NDNEG N117007 C_F_C61_NDBIAS 0 CMOSN  
+ L=10u  
+ W=265u         
M_C_F_C61_M2         C_F_C61_NDPOS C_N119885 C_F_C61_NDBIAS 0 CMOSN  
+ L=10u  
+ W=265u         
M_C_F_C61_M3         C_F_C61_NDNEG C_F_C61_NDNEG N116990 N116990 CMOSP  
+ L=10u  
+ W=200u         
M_C_F_C61_M12         Q61 C_F_C61_NDPOS N116990 N116990 CMOSP  
+ L=10u  
+ W=1120u         
M_C_F_C61_M4         C_F_C61_NDPOS C_F_C61_NDNEG N116990 N116990 CMOSP  
+ L=10u  
+ W=200u         
M_C_F_C61_M13         Q61 N117027 0 0 CMOSN  
+ L=16u  
+ W=215u         
M_C_F_C61_M5         C_F_C61_NDBIAS N117027 0 0 CMOSN  
+ L=12.5u  
+ W=65u         
M_C_F_R4_NAND6_M5         C_F_R4_N62152 C_F_R4_Y N116990 N116990 CMOSP  
+ L=.186u  
+ W=.25u         
M_C_F_R4_NAND6_M6         C_F_R4_N62152 C_F_R4_Y C_F_R4_NAND6_ND2 0 CMOSN  
+ L=.2u  
+ W=.232u         
M_C_F_R4_NAND6_M2         C_F_R4_NAND6_ND2 C_F_D_4SB 0 0 CMOSN  
+ L=.2u  
+ W=.232u         
M_C_F_R4_NAND6_M4         C_F_R4_N62152 C_F_D_4SB N116990 N116990 CMOSP  
+ L=.186u  
+ W=.25u         
M_C_F_R4_NAND1_M2         C_F_R4_NAND1_ND2 N116976 C_F_R4_NAND1_ND3 0 CMOSN  
+ L=.18u  
+ W=.37u         
M_C_F_R4_NAND1_M3         C_F_R4_Y C_F_R4_X N116990 N116990 CMOSP  
+ L=.25u  
+ W=.26u         
M_C_F_R4_NAND1_M6         C_F_R4_NAND1_ND3 C_F_R4_N62152 0 0 CMOSN  
+ L=.18u  
+ W=.37u         
M_C_F_R4_NAND1_M4         C_F_R4_Y N116976 N116990 N116990 CMOSP  
+ L=.25u  
+ W=.26u         
M_C_F_R4_NAND1_M1         C_F_R4_Y C_F_R4_X C_F_R4_NAND1_ND2 0 CMOSN  
+ L=.18u  
+ W=.37u         
M_C_F_R4_NAND1_M5         C_F_R4_Y C_F_R4_N62152 N116990 N116990 CMOSP  
+ L=.25u  
+ W=.26u         
M_C_F_R4_NAND2_M5         C_F_R4_N62128 C_F_R4_N62152 N116990 N116990 CMOSP  
+ L=.186u  
+ W=.25u         
M_C_F_R4_NAND2_M6         C_F_R4_N62128 C_F_R4_N62152 C_F_R4_NAND2_ND2 0 CMOSN 
+  
+ L=.2u  
+ W=.232u         
M_C_F_R4_NAND2_M2         C_F_R4_NAND2_ND2 C_F_R4_X 0 0 CMOSN  
+ L=.2u  
+ W=.232u         
M_C_F_R4_NAND2_M4         C_F_R4_N62128 C_F_R4_X N116990 N116990 CMOSP  
+ L=.186u  
+ W=.25u         
M_C_F_R4_NAND3_M5         C_F_R4_X C_F_R4_N62128 N116990 N116990 CMOSP  
+ L=.186u  
+ W=.25u         
M_C_F_R4_NAND3_M6         C_F_R4_X C_F_R4_N62128 C_F_R4_NAND3_ND2 0 CMOSN  
+ L=.2u  
+ W=.232u         
M_C_F_R4_NAND3_M2         C_F_R4_NAND3_ND2 N116976 0 0 CMOSN  
+ L=.2u  
+ W=.232u         
M_C_F_R4_NAND3_M4         C_F_R4_X N116976 N116990 N116990 CMOSP  
+ L=.186u  
+ W=.25u         
M_C_F_R4_NAND4_M5         4SB C_F_R4_X N116990 N116990 CMOSP  
+ L=.186u  
+ W=.25u         
M_C_F_R4_NAND4_M6         4SB C_F_R4_X C_F_R4_NAND4_ND2 0 CMOSN  
+ L=.2u  
+ W=.232u         
M_C_F_R4_NAND4_M2         C_F_R4_NAND4_ND2 N_4SB 0 0 CMOSN  
+ L=.2u  
+ W=.232u         
M_C_F_R4_NAND4_M4         4SB N_4SB N116990 N116990 CMOSP  
+ L=.186u  
+ W=.25u         
M_C_F_R4_NAND5_M5         N_4SB 4SB N116990 N116990 CMOSP  
+ L=.186u  
+ W=.25u         
M_C_F_R4_NAND5_M6         N_4SB 4SB C_F_R4_NAND5_ND2 0 CMOSN  
+ L=.2u  
+ W=.232u         
M_C_F_R4_NAND5_M2         C_F_R4_NAND5_ND2 C_F_R4_Y 0 0 CMOSN  
+ L=.2u  
+ W=.232u         
M_C_F_R4_NAND5_M4         N_4SB C_F_R4_Y N116990 N116990 CMOSP  
+ L=.186u  
+ W=.25u         
M_C_F_C29_M1         C_F_C29_NDNEG N117007 C_F_C29_NDBIAS 0 CMOSN  
+ L=10u  
+ W=265u         
M_C_F_C29_M2         C_F_C29_NDPOS C_N117542 C_F_C29_NDBIAS 0 CMOSN  
+ L=10u  
+ W=265u         
M_C_F_C29_M3         C_F_C29_NDNEG C_F_C29_NDNEG N116990 N116990 CMOSP  
+ L=10u  
+ W=200u         
M_C_F_C29_M12         Q29 C_F_C29_NDPOS N116990 N116990 CMOSP  
+ L=10u  
+ W=1120u         
M_C_F_C29_M4         C_F_C29_NDPOS C_F_C29_NDNEG N116990 N116990 CMOSP  
+ L=10u  
+ W=200u         
M_C_F_C29_M13         Q29 N117027 0 0 CMOSN  
+ L=16u  
+ W=215u         
M_C_F_C29_M5         C_F_C29_NDBIAS N117027 0 0 CMOSN  
+ L=12.5u  
+ W=65u         
M_C_F_C40_M1         C_F_C40_NDNEG N117007 C_F_C40_NDBIAS 0 CMOSN  
+ L=10u  
+ W=265u         
M_C_F_C40_M2         C_F_C40_NDPOS C_N117504 C_F_C40_NDBIAS 0 CMOSN  
+ L=10u  
+ W=265u         
M_C_F_C40_M3         C_F_C40_NDNEG C_F_C40_NDNEG N116990 N116990 CMOSP  
+ L=10u  
+ W=200u         
M_C_F_C40_M12         Q40 C_F_C40_NDPOS N116990 N116990 CMOSP  
+ L=10u  
+ W=1120u         
M_C_F_C40_M4         C_F_C40_NDPOS C_F_C40_NDNEG N116990 N116990 CMOSP  
+ L=10u  
+ W=200u         
M_C_F_C40_M13         Q40 N117027 0 0 CMOSN  
+ L=16u  
+ W=215u         
M_C_F_C40_M5         C_F_C40_NDBIAS N117027 0 0 CMOSN  
+ L=12.5u  
+ W=65u         
M_C_F_R1_NAND6_M5         C_F_R1_N62152 C_F_R1_Y N116990 N116990 CMOSP  
+ L=.186u  
+ W=.25u         
M_C_F_R1_NAND6_M6         C_F_R1_N62152 C_F_R1_Y C_F_R1_NAND6_ND2 0 CMOSN  
+ L=.2u  
+ W=.232u         
M_C_F_R1_NAND6_M2         C_F_R1_NAND6_ND2 C_F_D_LSB 0 0 CMOSN  
+ L=.2u  
+ W=.232u         
M_C_F_R1_NAND6_M4         C_F_R1_N62152 C_F_D_LSB N116990 N116990 CMOSP  
+ L=.186u  
+ W=.25u         
M_C_F_R1_NAND1_M2         C_F_R1_NAND1_ND2 N116976 C_F_R1_NAND1_ND3 0 CMOSN  
+ L=.18u  
+ W=.37u         
M_C_F_R1_NAND1_M3         C_F_R1_Y C_F_R1_X N116990 N116990 CMOSP  
+ L=.25u  
+ W=.26u         
M_C_F_R1_NAND1_M6         C_F_R1_NAND1_ND3 C_F_R1_N62152 0 0 CMOSN  
+ L=.18u  
+ W=.37u         
M_C_F_R1_NAND1_M4         C_F_R1_Y N116976 N116990 N116990 CMOSP  
+ L=.25u  
+ W=.26u         
M_C_F_R1_NAND1_M1         C_F_R1_Y C_F_R1_X C_F_R1_NAND1_ND2 0 CMOSN  
+ L=.18u  
+ W=.37u         
M_C_F_R1_NAND1_M5         C_F_R1_Y C_F_R1_N62152 N116990 N116990 CMOSP  
+ L=.25u  
+ W=.26u         
M_C_F_R1_NAND2_M5         C_F_R1_N62128 C_F_R1_N62152 N116990 N116990 CMOSP  
+ L=.186u  
+ W=.25u         
M_C_F_R1_NAND2_M6         C_F_R1_N62128 C_F_R1_N62152 C_F_R1_NAND2_ND2 0 CMOSN 
+  
+ L=.2u  
+ W=.232u         
M_C_F_R1_NAND2_M2         C_F_R1_NAND2_ND2 C_F_R1_X 0 0 CMOSN  
+ L=.2u  
+ W=.232u         
M_C_F_R1_NAND2_M4         C_F_R1_N62128 C_F_R1_X N116990 N116990 CMOSP  
+ L=.186u  
+ W=.25u         
M_C_F_R1_NAND3_M5         C_F_R1_X C_F_R1_N62128 N116990 N116990 CMOSP  
+ L=.186u  
+ W=.25u         
M_C_F_R1_NAND3_M6         C_F_R1_X C_F_R1_N62128 C_F_R1_NAND3_ND2 0 CMOSN  
+ L=.2u  
+ W=.232u         
M_C_F_R1_NAND3_M2         C_F_R1_NAND3_ND2 N116976 0 0 CMOSN  
+ L=.2u  
+ W=.232u         
M_C_F_R1_NAND3_M4         C_F_R1_X N116976 N116990 N116990 CMOSP  
+ L=.186u  
+ W=.25u         
M_C_F_R1_NAND4_M5         LSB C_F_R1_X N116990 N116990 CMOSP  
+ L=.186u  
+ W=.25u         
M_C_F_R1_NAND4_M6         LSB C_F_R1_X C_F_R1_NAND4_ND2 0 CMOSN  
+ L=.2u  
+ W=.232u         
M_C_F_R1_NAND4_M2         C_F_R1_NAND4_ND2 N_LSB 0 0 CMOSN  
+ L=.2u  
+ W=.232u         
M_C_F_R1_NAND4_M4         LSB N_LSB N116990 N116990 CMOSP  
+ L=.186u  
+ W=.25u         
M_C_F_R1_NAND5_M5         N_LSB LSB N116990 N116990 CMOSP  
+ L=.186u  
+ W=.25u         
M_C_F_R1_NAND5_M6         N_LSB LSB C_F_R1_NAND5_ND2 0 CMOSN  
+ L=.2u  
+ W=.232u         
M_C_F_R1_NAND5_M2         C_F_R1_NAND5_ND2 C_F_R1_Y 0 0 CMOSN  
+ L=.2u  
+ W=.232u         
M_C_F_R1_NAND5_M4         N_LSB C_F_R1_Y N116990 N116990 CMOSP  
+ L=.186u  
+ W=.25u         
M_C_F_C56_M1         C_F_C56_NDNEG N117007 C_F_C56_NDBIAS 0 CMOSN  
+ L=10u  
+ W=265u         
M_C_F_C56_M2         C_F_C56_NDPOS C_N119895 C_F_C56_NDBIAS 0 CMOSN  
+ L=10u  
+ W=265u         
M_C_F_C56_M3         C_F_C56_NDNEG C_F_C56_NDNEG N116990 N116990 CMOSP  
+ L=10u  
+ W=200u         
M_C_F_C56_M12         Q56 C_F_C56_NDPOS N116990 N116990 CMOSP  
+ L=10u  
+ W=1120u         
M_C_F_C56_M4         C_F_C56_NDPOS C_F_C56_NDNEG N116990 N116990 CMOSP  
+ L=10u  
+ W=200u         
M_C_F_C56_M13         Q56 N117027 0 0 CMOSN  
+ L=16u  
+ W=215u         
M_C_F_C56_M5         C_F_C56_NDBIAS N117027 0 0 CMOSN  
+ L=12.5u  
+ W=65u         
M_C_F_C52_M1         C_F_C52_NDNEG N117007 C_F_C52_NDBIAS 0 CMOSN  
+ L=10u  
+ W=265u         
M_C_F_C52_M2         C_F_C52_NDPOS C_N119907 C_F_C52_NDBIAS 0 CMOSN  
+ L=10u  
+ W=265u         
M_C_F_C52_M3         C_F_C52_NDNEG C_F_C52_NDNEG N116990 N116990 CMOSP  
+ L=10u  
+ W=200u         
M_C_F_C52_M12         Q52 C_F_C52_NDPOS N116990 N116990 CMOSP  
+ L=10u  
+ W=1120u         
M_C_F_C52_M4         C_F_C52_NDPOS C_F_C52_NDNEG N116990 N116990 CMOSP  
+ L=10u  
+ W=200u         
M_C_F_C52_M13         Q52 N117027 0 0 CMOSN  
+ L=16u  
+ W=215u         
M_C_F_C52_M5         C_F_C52_NDBIAS N117027 0 0 CMOSN  
+ L=12.5u  
+ W=65u         
M_C_F_C59_M1         C_F_C59_NDNEG N117007 C_F_C59_NDBIAS 0 CMOSN  
+ L=10u  
+ W=265u         
M_C_F_C59_M2         C_F_C59_NDPOS C_N119889 C_F_C59_NDBIAS 0 CMOSN  
+ L=10u  
+ W=265u         
M_C_F_C59_M3         C_F_C59_NDNEG C_F_C59_NDNEG N116990 N116990 CMOSP  
+ L=10u  
+ W=200u         
M_C_F_C59_M12         Q59 C_F_C59_NDPOS N116990 N116990 CMOSP  
+ L=10u  
+ W=1120u         
M_C_F_C59_M4         C_F_C59_NDPOS C_F_C59_NDNEG N116990 N116990 CMOSP  
+ L=10u  
+ W=200u         
M_C_F_C59_M13         Q59 N117027 0 0 CMOSN  
+ L=16u  
+ W=215u         
M_C_F_C59_M5         C_F_C59_NDBIAS N117027 0 0 CMOSN  
+ L=12.5u  
+ W=65u         
M_C_F_C13_M1         C_F_C13_NDNEG N117007 C_F_C13_NDBIAS 0 CMOSN  
+ L=10u  
+ W=265u         
M_C_F_C13_M2         C_F_C13_NDPOS C_N117558 C_F_C13_NDBIAS 0 CMOSN  
+ L=10u  
+ W=265u         
M_C_F_C13_M3         C_F_C13_NDNEG C_F_C13_NDNEG N116990 N116990 CMOSP  
+ L=10u  
+ W=200u         
M_C_F_C13_M12         Q13 C_F_C13_NDPOS N116990 N116990 CMOSP  
+ L=10u  
+ W=1120u         
M_C_F_C13_M4         C_F_C13_NDPOS C_F_C13_NDNEG N116990 N116990 CMOSP  
+ L=10u  
+ W=200u         
M_C_F_C13_M13         Q13 N117027 0 0 CMOSN  
+ L=16u  
+ W=215u         
M_C_F_C13_M5         C_F_C13_NDBIAS N117027 0 0 CMOSN  
+ L=12.5u  
+ W=65u         
M_C_F_C14_M1         C_F_C14_NDNEG N117007 C_F_C14_NDBIAS 0 CMOSN  
+ L=10u  
+ W=265u         
M_C_F_C14_M2         C_F_C14_NDPOS C_N117556 C_F_C14_NDBIAS 0 CMOSN  
+ L=10u  
+ W=265u         
M_C_F_C14_M3         C_F_C14_NDNEG C_F_C14_NDNEG N116990 N116990 CMOSP  
+ L=10u  
+ W=200u         
M_C_F_C14_M12         Q14 C_F_C14_NDPOS N116990 N116990 CMOSP  
+ L=10u  
+ W=1120u         
M_C_F_C14_M4         C_F_C14_NDPOS C_F_C14_NDNEG N116990 N116990 CMOSP  
+ L=10u  
+ W=200u         
M_C_F_C14_M13         Q14 N117027 0 0 CMOSN  
+ L=16u  
+ W=215u         
M_C_F_C14_M5         C_F_C14_NDBIAS N117027 0 0 CMOSN  
+ L=12.5u  
+ W=65u         
M_C_F_C12_M1         C_F_C12_NDNEG N117007 C_F_C12_NDBIAS 0 CMOSN  
+ L=10u  
+ W=265u         
M_C_F_C12_M2         C_F_C12_NDPOS C_N117560 C_F_C12_NDBIAS 0 CMOSN  
+ L=10u  
+ W=265u         
M_C_F_C12_M3         C_F_C12_NDNEG C_F_C12_NDNEG N116990 N116990 CMOSP  
+ L=10u  
+ W=200u         
M_C_F_C12_M12         Q12 C_F_C12_NDPOS N116990 N116990 CMOSP  
+ L=10u  
+ W=1120u         
M_C_F_C12_M4         C_F_C12_NDPOS C_F_C12_NDNEG N116990 N116990 CMOSP  
+ L=10u  
+ W=200u         
M_C_F_C12_M13         Q12 N117027 0 0 CMOSN  
+ L=16u  
+ W=215u         
M_C_F_C12_M5         C_F_C12_NDBIAS N117027 0 0 CMOSN  
+ L=12.5u  
+ W=65u         
M_C_F_C30_M1         C_F_C30_NDNEG N117007 C_F_C30_NDBIAS 0 CMOSN  
+ L=10u  
+ W=265u         
M_C_F_C30_M2         C_F_C30_NDPOS C_N117544 C_F_C30_NDBIAS 0 CMOSN  
+ L=10u  
+ W=265u         
M_C_F_C30_M3         C_F_C30_NDNEG C_F_C30_NDNEG N116990 N116990 CMOSP  
+ L=10u  
+ W=200u         
M_C_F_C30_M12         Q30 C_F_C30_NDPOS N116990 N116990 CMOSP  
+ L=10u  
+ W=1120u         
M_C_F_C30_M4         C_F_C30_NDPOS C_F_C30_NDNEG N116990 N116990 CMOSP  
+ L=10u  
+ W=200u         
M_C_F_C30_M13         Q30 N117027 0 0 CMOSN  
+ L=16u  
+ W=215u         
M_C_F_C30_M5         C_F_C30_NDBIAS N117027 0 0 CMOSN  
+ L=12.5u  
+ W=65u         
M_C_F_C35_M1         C_F_C35_NDNEG N117007 C_F_C35_NDBIAS 0 CMOSN  
+ L=10u  
+ W=265u         
M_C_F_C35_M2         C_F_C35_NDPOS C_N117514 C_F_C35_NDBIAS 0 CMOSN  
+ L=10u  
+ W=265u         
M_C_F_C35_M3         C_F_C35_NDNEG C_F_C35_NDNEG N116990 N116990 CMOSP  
+ L=10u  
+ W=200u         
M_C_F_C35_M12         Q35 C_F_C35_NDPOS N116990 N116990 CMOSP  
+ L=10u  
+ W=1120u         
M_C_F_C35_M4         C_F_C35_NDPOS C_F_C35_NDNEG N116990 N116990 CMOSP  
+ L=10u  
+ W=200u         
M_C_F_C35_M13         Q35 N117027 0 0 CMOSN  
+ L=16u  
+ W=215u         
M_C_F_C35_M5         C_F_C35_NDBIAS N117027 0 0 CMOSN  
+ L=12.5u  
+ W=65u         
M_C_F_C39_M1         C_F_C39_NDNEG N117007 C_F_C39_NDBIAS 0 CMOSN  
+ L=10u  
+ W=265u         
M_C_F_C39_M2         C_F_C39_NDPOS C_N117506 C_F_C39_NDBIAS 0 CMOSN  
+ L=10u  
+ W=265u         
M_C_F_C39_M3         C_F_C39_NDNEG C_F_C39_NDNEG N116990 N116990 CMOSP  
+ L=10u  
+ W=200u         
M_C_F_C39_M12         Q39 C_F_C39_NDPOS N116990 N116990 CMOSP  
+ L=10u  
+ W=1120u         
M_C_F_C39_M4         C_F_C39_NDPOS C_F_C39_NDNEG N116990 N116990 CMOSP  
+ L=10u  
+ W=200u         
M_C_F_C39_M13         Q39 N117027 0 0 CMOSN  
+ L=16u  
+ W=215u         
M_C_F_C39_M5         C_F_C39_NDBIAS N117027 0 0 CMOSN  
+ L=12.5u  
+ W=65u         
M_C_F_C15_M1         C_F_C15_NDNEG N117007 C_F_C15_NDBIAS 0 CMOSN  
+ L=10u  
+ W=265u         
M_C_F_C15_M2         C_F_C15_NDPOS C_N117554 C_F_C15_NDBIAS 0 CMOSN  
+ L=10u  
+ W=265u         
M_C_F_C15_M3         C_F_C15_NDNEG C_F_C15_NDNEG N116990 N116990 CMOSP  
+ L=10u  
+ W=200u         
M_C_F_C15_M12         Q15 C_F_C15_NDPOS N116990 N116990 CMOSP  
+ L=10u  
+ W=1120u         
M_C_F_C15_M4         C_F_C15_NDPOS C_F_C15_NDNEG N116990 N116990 CMOSP  
+ L=10u  
+ W=200u         
M_C_F_C15_M13         Q15 N117027 0 0 CMOSN  
+ L=16u  
+ W=215u         
M_C_F_C15_M5         C_F_C15_NDBIAS N117027 0 0 CMOSN  
+ L=12.5u  
+ W=65u         
M_C_F_C11_M1         C_F_C11_NDNEG N117007 C_F_C11_NDBIAS 0 CMOSN  
+ L=10u  
+ W=265u         
M_C_F_C11_M2         C_F_C11_NDPOS C_N117562 C_F_C11_NDBIAS 0 CMOSN  
+ L=10u  
+ W=265u         
M_C_F_C11_M3         C_F_C11_NDNEG C_F_C11_NDNEG N116990 N116990 CMOSP  
+ L=10u  
+ W=200u         
M_C_F_C11_M12         Q11 C_F_C11_NDPOS N116990 N116990 CMOSP  
+ L=10u  
+ W=1120u         
M_C_F_C11_M4         C_F_C11_NDPOS C_F_C11_NDNEG N116990 N116990 CMOSP  
+ L=10u  
+ W=200u         
M_C_F_C11_M13         Q11 N117027 0 0 CMOSN  
+ L=16u  
+ W=215u         
M_C_F_C11_M5         C_F_C11_NDBIAS N117027 0 0 CMOSN  
+ L=12.5u  
+ W=65u         
M_C_F_C6_M1         C_F_C6_NDNEG N117007 C_F_C6_NDBIAS 0 CMOSN  
+ L=10u  
+ W=265u         
M_C_F_C6_M2         C_F_C6_NDPOS C_N117572 C_F_C6_NDBIAS 0 CMOSN  
+ L=10u  
+ W=265u         
M_C_F_C6_M3         C_F_C6_NDNEG C_F_C6_NDNEG N116990 N116990 CMOSP  
+ L=10u  
+ W=200u         
M_C_F_C6_M12         Q6 C_F_C6_NDPOS N116990 N116990 CMOSP  
+ L=10u  
+ W=1120u         
M_C_F_C6_M4         C_F_C6_NDPOS C_F_C6_NDNEG N116990 N116990 CMOSP  
+ L=10u  
+ W=200u         
M_C_F_C6_M13         Q6 N117027 0 0 CMOSN  
+ L=16u  
+ W=215u         
M_C_F_C6_M5         C_F_C6_NDBIAS N117027 0 0 CMOSN  
+ L=12.5u  
+ W=65u         
M_C_F_C16_M1         C_F_C16_NDNEG N117007 C_F_C16_NDBIAS 0 CMOSN  
+ L=10u  
+ W=265u         
M_C_F_C16_M2         C_F_C16_NDPOS C_N117552 C_F_C16_NDBIAS 0 CMOSN  
+ L=10u  
+ W=265u         
M_C_F_C16_M3         C_F_C16_NDNEG C_F_C16_NDNEG N116990 N116990 CMOSP  
+ L=10u  
+ W=200u         
M_C_F_C16_M12         Q16 C_F_C16_NDPOS N116990 N116990 CMOSP  
+ L=10u  
+ W=1120u         
M_C_F_C16_M4         C_F_C16_NDPOS C_F_C16_NDNEG N116990 N116990 CMOSP  
+ L=10u  
+ W=200u         
M_C_F_C16_M13         Q16 N117027 0 0 CMOSN  
+ L=16u  
+ W=215u         
M_C_F_C16_M5         C_F_C16_NDBIAS N117027 0 0 CMOSN  
+ L=12.5u  
+ W=65u         
M_C_F_C10_M1         C_F_C10_NDNEG N117007 C_F_C10_NDBIAS 0 CMOSN  
+ L=10u  
+ W=265u         
M_C_F_C10_M2         C_F_C10_NDPOS C_N117580 C_F_C10_NDBIAS 0 CMOSN  
+ L=10u  
+ W=265u         
M_C_F_C10_M3         C_F_C10_NDNEG C_F_C10_NDNEG N116990 N116990 CMOSP  
+ L=10u  
+ W=200u         
M_C_F_C10_M12         Q10 C_F_C10_NDPOS N116990 N116990 CMOSP  
+ L=10u  
+ W=1120u         
M_C_F_C10_M4         C_F_C10_NDPOS C_F_C10_NDNEG N116990 N116990 CMOSP  
+ L=10u  
+ W=200u         
M_C_F_C10_M13         Q10 N117027 0 0 CMOSN  
+ L=16u  
+ W=215u         
M_C_F_C10_M5         C_F_C10_NDBIAS N117027 0 0 CMOSN  
+ L=12.5u  
+ W=65u         
M_C_F_C53_M1         C_F_C53_NDNEG N117007 C_F_C53_NDBIAS 0 CMOSN  
+ L=10u  
+ W=265u         
M_C_F_C53_M2         C_F_C53_NDPOS C_N119901 C_F_C53_NDBIAS 0 CMOSN  
+ L=10u  
+ W=265u         
M_C_F_C53_M3         C_F_C53_NDNEG C_F_C53_NDNEG N116990 N116990 CMOSP  
+ L=10u  
+ W=200u         
M_C_F_C53_M12         Q53 C_F_C53_NDPOS N116990 N116990 CMOSP  
+ L=10u  
+ W=1120u         
M_C_F_C53_M4         C_F_C53_NDPOS C_F_C53_NDNEG N116990 N116990 CMOSP  
+ L=10u  
+ W=200u         
M_C_F_C53_M13         Q53 N117027 0 0 CMOSN  
+ L=16u  
+ W=215u         
M_C_F_C53_M5         C_F_C53_NDBIAS N117027 0 0 CMOSN  
+ L=12.5u  
+ W=65u         
M_C_F_R5_NAND6_M5         C_F_R5_N62152 C_F_R5_Y N116990 N116990 CMOSP  
+ L=.186u  
+ W=.25u         
M_C_F_R5_NAND6_M6         C_F_R5_N62152 C_F_R5_Y C_F_R5_NAND6_ND2 0 CMOSN  
+ L=.2u  
+ W=.232u         
M_C_F_R5_NAND6_M2         C_F_R5_NAND6_ND2 C_F_D_5SB 0 0 CMOSN  
+ L=.2u  
+ W=.232u         
M_C_F_R5_NAND6_M4         C_F_R5_N62152 C_F_D_5SB N116990 N116990 CMOSP  
+ L=.186u  
+ W=.25u         
M_C_F_R5_NAND1_M2         C_F_R5_NAND1_ND2 N116976 C_F_R5_NAND1_ND3 0 CMOSN  
+ L=.18u  
+ W=.37u         
M_C_F_R5_NAND1_M3         C_F_R5_Y C_F_R5_X N116990 N116990 CMOSP  
+ L=.25u  
+ W=.26u         
M_C_F_R5_NAND1_M6         C_F_R5_NAND1_ND3 C_F_R5_N62152 0 0 CMOSN  
+ L=.18u  
+ W=.37u         
M_C_F_R5_NAND1_M4         C_F_R5_Y N116976 N116990 N116990 CMOSP  
+ L=.25u  
+ W=.26u         
M_C_F_R5_NAND1_M1         C_F_R5_Y C_F_R5_X C_F_R5_NAND1_ND2 0 CMOSN  
+ L=.18u  
+ W=.37u         
M_C_F_R5_NAND1_M5         C_F_R5_Y C_F_R5_N62152 N116990 N116990 CMOSP  
+ L=.25u  
+ W=.26u         
M_C_F_R5_NAND2_M5         C_F_R5_N62128 C_F_R5_N62152 N116990 N116990 CMOSP  
+ L=.186u  
+ W=.25u         
M_C_F_R5_NAND2_M6         C_F_R5_N62128 C_F_R5_N62152 C_F_R5_NAND2_ND2 0 CMOSN 
+  
+ L=.2u  
+ W=.232u         
M_C_F_R5_NAND2_M2         C_F_R5_NAND2_ND2 C_F_R5_X 0 0 CMOSN  
+ L=.2u  
+ W=.232u         
M_C_F_R5_NAND2_M4         C_F_R5_N62128 C_F_R5_X N116990 N116990 CMOSP  
+ L=.186u  
+ W=.25u         
M_C_F_R5_NAND3_M5         C_F_R5_X C_F_R5_N62128 N116990 N116990 CMOSP  
+ L=.186u  
+ W=.25u         
M_C_F_R5_NAND3_M6         C_F_R5_X C_F_R5_N62128 C_F_R5_NAND3_ND2 0 CMOSN  
+ L=.2u  
+ W=.232u         
M_C_F_R5_NAND3_M2         C_F_R5_NAND3_ND2 N116976 0 0 CMOSN  
+ L=.2u  
+ W=.232u         
M_C_F_R5_NAND3_M4         C_F_R5_X N116976 N116990 N116990 CMOSP  
+ L=.186u  
+ W=.25u         
M_C_F_R5_NAND4_M5         5SB C_F_R5_X N116990 N116990 CMOSP  
+ L=.186u  
+ W=.25u         
M_C_F_R5_NAND4_M6         5SB C_F_R5_X C_F_R5_NAND4_ND2 0 CMOSN  
+ L=.2u  
+ W=.232u         
M_C_F_R5_NAND4_M2         C_F_R5_NAND4_ND2 N_5SB 0 0 CMOSN  
+ L=.2u  
+ W=.232u         
M_C_F_R5_NAND4_M4         5SB N_5SB N116990 N116990 CMOSP  
+ L=.186u  
+ W=.25u         
M_C_F_R5_NAND5_M5         N_5SB 5SB N116990 N116990 CMOSP  
+ L=.186u  
+ W=.25u         
M_C_F_R5_NAND5_M6         N_5SB 5SB C_F_R5_NAND5_ND2 0 CMOSN  
+ L=.2u  
+ W=.232u         
M_C_F_R5_NAND5_M2         C_F_R5_NAND5_ND2 C_F_R5_Y 0 0 CMOSN  
+ L=.2u  
+ W=.232u         
M_C_F_R5_NAND5_M4         N_5SB C_F_R5_Y N116990 N116990 CMOSP  
+ L=.186u  
+ W=.25u         
M_C_F_C22_M1         C_F_C22_NDNEG N117007 C_F_C22_NDBIAS 0 CMOSN  
+ L=10u  
+ W=265u         
M_C_F_C22_M2         C_F_C22_NDPOS C_N117528 C_F_C22_NDBIAS 0 CMOSN  
+ L=10u  
+ W=265u         
M_C_F_C22_M3         C_F_C22_NDNEG C_F_C22_NDNEG N116990 N116990 CMOSP  
+ L=10u  
+ W=200u         
M_C_F_C22_M12         Q22 C_F_C22_NDPOS N116990 N116990 CMOSP  
+ L=10u  
+ W=1120u         
M_C_F_C22_M4         C_F_C22_NDPOS C_F_C22_NDNEG N116990 N116990 CMOSP  
+ L=10u  
+ W=200u         
M_C_F_C22_M13         Q22 N117027 0 0 CMOSN  
+ L=16u  
+ W=215u         
M_C_F_C22_M5         C_F_C22_NDBIAS N117027 0 0 CMOSN  
+ L=12.5u  
+ W=65u         
M_C_F_C23_M1         C_F_C23_NDNEG N117007 C_F_C23_NDBIAS 0 CMOSN  
+ L=10u  
+ W=265u         
M_C_F_C23_M2         C_F_C23_NDPOS C_N117530 C_F_C23_NDBIAS 0 CMOSN  
+ L=10u  
+ W=265u         
M_C_F_C23_M3         C_F_C23_NDNEG C_F_C23_NDNEG N116990 N116990 CMOSP  
+ L=10u  
+ W=200u         
M_C_F_C23_M12         Q23 C_F_C23_NDPOS N116990 N116990 CMOSP  
+ L=10u  
+ W=1120u         
M_C_F_C23_M4         C_F_C23_NDPOS C_F_C23_NDNEG N116990 N116990 CMOSP  
+ L=10u  
+ W=200u         
M_C_F_C23_M13         Q23 N117027 0 0 CMOSN  
+ L=16u  
+ W=215u         
M_C_F_C23_M5         C_F_C23_NDBIAS N117027 0 0 CMOSN  
+ L=12.5u  
+ W=65u         
M_C_F_C21_M1         C_F_C21_NDNEG N117007 C_F_C21_NDBIAS 0 CMOSN  
+ L=10u  
+ W=265u         
M_C_F_C21_M2         C_F_C21_NDPOS C_N117526 C_F_C21_NDBIAS 0 CMOSN  
+ L=10u  
+ W=265u         
M_C_F_C21_M3         C_F_C21_NDNEG C_F_C21_NDNEG N116990 N116990 CMOSP  
+ L=10u  
+ W=200u         
M_C_F_C21_M12         Q21 C_F_C21_NDPOS N116990 N116990 CMOSP  
+ L=10u  
+ W=1120u         
M_C_F_C21_M4         C_F_C21_NDPOS C_F_C21_NDNEG N116990 N116990 CMOSP  
+ L=10u  
+ W=200u         
M_C_F_C21_M13         Q21 N117027 0 0 CMOSN  
+ L=16u  
+ W=215u         
M_C_F_C21_M5         C_F_C21_NDBIAS N117027 0 0 CMOSN  
+ L=12.5u  
+ W=65u         
M_C_F_C1_M1         C_F_C1_NDNEG N117007 C_F_C1_NDBIAS 0 CMOSN  
+ L=10u  
+ W=265u         
M_C_F_C1_M2         C_F_C1_NDPOS C_N117582 C_F_C1_NDBIAS 0 CMOSN  
+ L=10u  
+ W=265u         
M_C_F_C1_M3         C_F_C1_NDNEG C_F_C1_NDNEG N116990 N116990 CMOSP  
+ L=10u  
+ W=200u         
M_C_F_C1_M12         Q1 C_F_C1_NDPOS N116990 N116990 CMOSP  
+ L=10u  
+ W=1120u         
M_C_F_C1_M4         C_F_C1_NDPOS C_F_C1_NDNEG N116990 N116990 CMOSP  
+ L=10u  
+ W=200u         
M_C_F_C1_M13         Q1 N117027 0 0 CMOSN  
+ L=16u  
+ W=215u         
M_C_F_C1_M5         C_F_C1_NDBIAS N117027 0 0 CMOSN  
+ L=12.5u  
+ W=65u         
M_C_F_C9_M1         C_F_C9_NDNEG N117007 C_F_C9_NDBIAS 0 CMOSN  
+ L=10u  
+ W=265u         
M_C_F_C9_M2         C_F_C9_NDPOS C_N117578 C_F_C9_NDBIAS 0 CMOSN  
+ L=10u  
+ W=265u         
M_C_F_C9_M3         C_F_C9_NDNEG C_F_C9_NDNEG N116990 N116990 CMOSP  
+ L=10u  
+ W=200u         
M_C_F_C9_M12         Q9 C_F_C9_NDPOS N116990 N116990 CMOSP  
+ L=10u  
+ W=1120u         
M_C_F_C9_M4         C_F_C9_NDPOS C_F_C9_NDNEG N116990 N116990 CMOSP  
+ L=10u  
+ W=200u         
M_C_F_C9_M13         Q9 N117027 0 0 CMOSN  
+ L=16u  
+ W=215u         
M_C_F_C9_M5         C_F_C9_NDBIAS N117027 0 0 CMOSN  
+ L=12.5u  
+ W=65u         
M_C_F_D_U31_M5         C_F_D_ND2SB1 Q2 N116990 N116990 CMOSP  
+ L=.25u  
+ W=.93u         
M_C_F_D_U31_M6         C_F_D_ND2SB1 Q2 0 0 CMOSN  
+ L=.43u  
+ W=.43u         
M_C_F_D_U16_M5         C_F_D_N565094 Q16 N116990 N116990 CMOSP  
+ L=.25u  
+ W=.93u         
M_C_F_D_U16_M6         C_F_D_N565094 Q16 0 0 CMOSN  
+ L=.43u  
+ W=.43u         
M_C_F_D_U91_M5         C_F_D_NDLSB16 C_F_D_N578578 N116990 N116990 CMOSP  
+ L=.186u  
+ W=.25u         
M_C_F_D_U91_M6         C_F_D_NDLSB16 C_F_D_N578578 C_F_D_U91_ND2 0 CMOSN  
+ L=.2u  
+ W=.232u         
M_C_F_D_U91_M2         C_F_D_U91_ND2 Q31 0 0 CMOSN  
+ L=.2u  
+ W=.232u         
M_C_F_D_U91_M4         C_F_D_NDLSB16 Q31 N116990 N116990 CMOSP  
+ L=.186u  
+ W=.25u         
M_C_F_D_U65_M5         C_F_D_N568485 C_F_D_N941987 N116990 N116990 CMOSP  
+ L=.25u  
+ W=.93u         
M_C_F_D_U65_M6         C_F_D_N568485 C_F_D_N941987 0 0 CMOSN  
+ L=.43u  
+ W=.43u         
M_C_F_D_U2_M5         C_F_D_N259339 C_F_C32_MSB N116990 N116990 CMOSP  
+ L=.25u  
+ W=.93u         
M_C_F_D_U2_M6         C_F_D_N259339 C_F_C32_MSB 0 0 CMOSN  
+ L=.43u  
+ W=.43u         
M_C_F_D_U96_M5         C_F_D_NDLSB11 C_F_D_N578514 N116990 N116990 CMOSP  
+ L=.186u  
+ W=.25u         
M_C_F_D_U96_M6         C_F_D_NDLSB11 C_F_D_N578514 C_F_D_U96_ND2 0 CMOSN  
+ L=.2u  
+ W=.232u         
M_C_F_D_U96_M2         C_F_D_U96_ND2 Q21 0 0 CMOSN  
+ L=.2u  
+ W=.232u         
M_C_F_D_U96_M4         C_F_D_NDLSB11 Q21 N116990 N116990 CMOSP  
+ L=.186u  
+ W=.25u         
M_C_F_D_U109_M5         C_F_D_N573020 Q48 N116990 N116990 CMOSP  
+ L=.25u  
+ W=.93u         
M_C_F_D_U109_M6         C_F_D_N573020 Q48 0 0 CMOSN  
+ L=.43u  
+ W=.43u         
M_C_F_D_U57_M5         C_F_D_ND2SB12 C_F_D_N567821 N116990 N116990 CMOSP  
+ L=.186u  
+ W=.25u         
M_C_F_D_U57_M6         C_F_D_ND2SB12 C_F_D_N567821 C_F_D_U57_ND2 0 CMOSN  
+ L=.2u  
+ W=.232u         
M_C_F_D_U57_M2         C_F_D_U57_ND2 Q46 0 0 CMOSN  
+ L=.2u  
+ W=.232u         
M_C_F_D_U57_M4         C_F_D_ND2SB12 Q46 N116990 N116990 CMOSP  
+ L=.186u  
+ W=.25u         
M_C_F_D_U28_M5         C_F_D_ND3SB6 C_F_D_N565120 N116990 N116990 CMOSP  
+ L=.186u  
+ W=.25u         
M_C_F_D_U28_M6         C_F_D_ND3SB6 C_F_D_N565120 C_F_D_U28_ND2 0 CMOSN  
+ L=.2u  
+ W=.232u         
M_C_F_D_U28_M2         C_F_D_U28_ND2 Q44 0 0 CMOSN  
+ L=.2u  
+ W=.232u         
M_C_F_D_U28_M4         C_F_D_ND3SB6 Q44 N116990 N116990 CMOSP  
+ L=.186u  
+ W=.25u         
M_C_F_D_U139_M5         C_F_D_NDX4LSB X4 N116990 N116990 CMOSP  
+ L=.25u  
+ W=.93u         
M_C_F_D_U139_M6         C_F_D_NDX4LSB X4 0 0 CMOSN  
+ L=.43u  
+ W=.43u         
M_C_F_D_U74_M5         C_F_D_N578674 Q12 N116990 N116990 CMOSP  
+ L=.25u  
+ W=.93u         
M_C_F_D_U74_M6         C_F_D_N578674 Q12 0 0 CMOSN  
+ L=.43u  
+ W=.43u         
M_C_F_D_U43_M5         C_F_D_N567821 Q44 N116990 N116990 CMOSP  
+ L=.25u  
+ W=.93u         
M_C_F_D_U43_M6         C_F_D_N567821 Q44 0 0 CMOSN  
+ L=.43u  
+ W=.43u         
M_C_F_D_U80_M5         C_F_D_N578524 Q22 N116990 N116990 CMOSP  
+ L=.25u  
+ W=.93u         
M_C_F_D_U80_M6         C_F_D_N578524 Q22 0 0 CMOSN  
+ L=.43u  
+ W=.43u         
M_C_F_D_U14_M5         C_F_D_ND3SB1 Q4 N116990 N116990 CMOSP  
+ L=.25u  
+ W=.93u         
M_C_F_D_U14_M6         C_F_D_ND3SB1 Q4 0 0 CMOSN  
+ L=.43u  
+ W=.43u         
M_C_F_D_U136_M5         C_F_D_NDX1LSB X1 N116990 N116990 CMOSP  
+ L=.25u  
+ W=.93u         
M_C_F_D_U136_M6         C_F_D_NDX1LSB X1 0 0 CMOSN  
+ L=.43u  
+ W=.43u         
M_C_F_D_U116_M5         C_F_D_N573096 Q62 N116990 N116990 CMOSP  
+ L=.25u  
+ W=.93u         
M_C_F_D_U116_M6         C_F_D_N573096 Q62 0 0 CMOSN  
+ L=.43u  
+ W=.43u         
M_C_F_D_U124_M5         C_F_D_NDLSB24 C_F_D_N572160 N116990 N116990 CMOSP  
+ L=.186u  
+ W=.25u         
M_C_F_D_U124_M6         C_F_D_NDLSB24 C_F_D_N572160 C_F_D_U124_ND2 0 CMOSN  
+ L=.2u  
+ W=.232u         
M_C_F_D_U124_M2         C_F_D_U124_ND2 Q47 0 0 CMOSN  
+ L=.2u  
+ W=.232u         
M_C_F_D_U124_M4         C_F_D_NDLSB24 Q47 N116990 N116990 CMOSP  
+ L=.186u  
+ W=.25u         
M_C_F_D_U69_M5         C_F_D_N578608 Q2 N116990 N116990 CMOSP  
+ L=.25u  
+ W=.93u         
M_C_F_D_U69_M6         C_F_D_N578608 Q2 0 0 CMOSN  
+ L=.43u  
+ W=.43u         
M_C_F_D_U86_M5         C_F_D_NDLSB4 C_F_D_N578636 N116990 N116990 CMOSP  
+ L=.186u  
+ W=.25u         
M_C_F_D_U86_M6         C_F_D_NDLSB4 C_F_D_N578636 C_F_D_U86_ND2 0 CMOSN  
+ L=.2u  
+ W=.232u         
M_C_F_D_U86_M2         C_F_D_U86_ND2 Q7 0 0 CMOSN  
+ L=.2u  
+ W=.232u         
M_C_F_D_U86_M4         C_F_D_NDLSB4 Q7 N116990 N116990 CMOSP  
+ L=.186u  
+ W=.25u         
M_C_F_D_U26_M5         C_F_D_ND3SB4 C_F_D_N565104 N116990 N116990 CMOSP  
+ L=.186u  
+ W=.25u         
M_C_F_D_U26_M6         C_F_D_ND3SB4 C_F_D_N565104 C_F_D_U26_ND2 0 CMOSN  
+ L=.2u  
+ W=.232u         
M_C_F_D_U26_M2         C_F_D_U26_ND2 Q28 0 0 CMOSN  
+ L=.2u  
+ W=.232u         
M_C_F_D_U26_M4         C_F_D_ND3SB4 Q28 N116990 N116990 CMOSP  
+ L=.186u  
+ W=.25u         
M_C_F_D_U103_M5         C_F_D_N572104 Q36 N116990 N116990 CMOSP  
+ L=.25u  
+ W=.93u         
M_C_F_D_U103_M6         C_F_D_N572104 Q36 0 0 CMOSN  
+ L=.43u  
+ W=.43u         
M_C_F_D_U37_M5         C_F_D_N568555 Q24 N116990 N116990 CMOSP  
+ L=.25u  
+ W=.93u         
M_C_F_D_U37_M6         C_F_D_N568555 Q24 0 0 CMOSN  
+ L=.43u  
+ W=.43u         
M_C_F_D_U61_M5         C_F_D_ND2SB16 C_F_D_N567861 N116990 N116990 CMOSP  
+ L=.186u  
+ W=.25u         
M_C_F_D_U61_M6         C_F_D_ND2SB16 C_F_D_N567861 C_F_D_U61_ND2 0 CMOSN  
+ L=.2u  
+ W=.232u         
M_C_F_D_U61_M2         C_F_D_U61_ND2 Q62 0 0 CMOSN  
+ L=.2u  
+ W=.232u         
M_C_F_D_U61_M4         C_F_D_ND2SB16 Q62 N116990 N116990 CMOSP  
+ L=.186u  
+ W=.25u         
M_C_F_D_U119_M5         C_F_D_NDLSB19 C_F_D_N572104 N116990 N116990 CMOSP  
+ L=.186u  
+ W=.25u         
M_C_F_D_U119_M6         C_F_D_NDLSB19 C_F_D_N572104 C_F_D_U119_ND2 0 CMOSN  
+ L=.2u  
+ W=.232u         
M_C_F_D_U119_M2         C_F_D_U119_ND2 Q37 0 0 CMOSN  
+ L=.2u  
+ W=.232u         
M_C_F_D_U119_M4         C_F_D_NDLSB19 Q37 N116990 N116990 CMOSP  
+ L=.186u  
+ W=.25u         
M_C_F_D_U48_M5         C_F_D_ND2SB3 C_F_D_N568511 N116990 N116990 CMOSP  
+ L=.186u  
+ W=.25u         
M_C_F_D_U48_M6         C_F_D_ND2SB3 C_F_D_N568511 C_F_D_U48_ND2 0 CMOSN  
+ L=.2u  
+ W=.232u         
M_C_F_D_U48_M2         C_F_D_U48_ND2 Q10 0 0 CMOSN  
+ L=.2u  
+ W=.232u         
M_C_F_D_U48_M4         C_F_D_ND2SB3 Q10 N116990 N116990 CMOSP  
+ L=.186u  
+ W=.25u         
M_C_F_D_U64_M16         C_F_D_N941987 C_F_D_ND2SB12 N116990 N116990 CMOSP  
+ L=.67u  
+ W=.68u         
M_C_F_D_U64_M5         C_F_D_N941987 C_F_D_ND2SB16 N116990 N116990 CMOSP  
+ L=.67u  
+ W=.68u         
M_C_F_D_U64_M11         C_F_D_N941987 C_F_D_ND2SB9 N116990 N116990 CMOSP  
+ L=.67u  
+ W=.68u         
M_C_F_D_U64_M9         C_F_D_N941987 C_F_D_ND2SB14 N116990 N116990 CMOSP  
+ L=.67u  
+ W=.68u         
M_C_F_D_U64_M1         C_F_D_N941987 C_F_D_ND2SB9 C_F_D_U64_ND2 0 CMOSN  
+ L=.18u  
+ W=2.55u         
M_C_F_D_U64_M6         C_F_D_U64_ND3 C_F_D_ND2SB11 C_F_D_U64_ND4 0 CMOSN  
+ L=.18u  
+ W=2.55u         
M_C_F_D_U64_M7         C_F_D_U64_ND4 C_F_D_ND2SB12 C_F_D_U64_ND5 0 CMOSN  
+ L=.18u  
+ W=2.55u         
M_C_F_D_U64_M12         C_F_D_N941987 C_F_D_ND2SB13 N116990 N116990 CMOSP  
+ L=.67u  
+ W=.68u         
M_C_F_D_U64_M2         C_F_D_U64_ND2 C_F_D_ND2SB10 C_F_D_U64_ND3 0 CMOSN  
+ L=.18u  
+ W=2.55u         
M_C_F_D_U64_M13         C_F_D_U64_ND6 C_F_D_ND2SB14 C_F_D_U64_ND7 0 CMOSN  
+ L=.18u  
+ W=2.55u         
M_C_F_D_U64_M10         C_F_D_U64_ND5 C_F_D_ND2SB13 C_F_D_U64_ND6 0 CMOSN  
+ L=.18u  
+ W=2.55u         
M_C_F_D_U64_M3         C_F_D_N941987 C_F_D_ND2SB10 N116990 N116990 CMOSP  
+ L=.67u  
+ W=.68u         
M_C_F_D_U64_M14         C_F_D_U64_ND7 C_F_D_ND2SB15 C_F_D_U64_ND8 0 CMOSN  
+ L=.18u  
+ W=2.55u         
M_C_F_D_U64_M8         C_F_D_N941987 C_F_D_ND2SB15 N116990 N116990 CMOSP  
+ L=.67u  
+ W=.68u         
M_C_F_D_U64_M4         C_F_D_N941987 C_F_D_ND2SB11 N116990 N116990 CMOSP  
+ L=.67u  
+ W=.68u         
M_C_F_D_U64_M15         C_F_D_U64_ND8 C_F_D_ND2SB16 0 0 CMOSN  
+ L=.18u  
+ W=2.55u         
M_C_F_D_U52_M5         C_F_D_ND2SB7 C_F_D_N568555 N116990 N116990 CMOSP  
+ L=.186u  
+ W=.25u         
M_C_F_D_U52_M6         C_F_D_ND2SB7 C_F_D_N568555 C_F_D_U52_ND2 0 CMOSN  
+ L=.2u  
+ W=.232u         
M_C_F_D_U52_M2         C_F_D_U52_ND2 Q26 0 0 CMOSN  
+ L=.2u  
+ W=.232u         
M_C_F_D_U52_M4         C_F_D_ND2SB7 Q26 N116990 N116990 CMOSP  
+ L=.186u  
+ W=.25u         
M_C_F_D_U108_M5         C_F_D_N572160 Q46 N116990 N116990 CMOSP  
+ L=.25u  
+ W=.93u         
M_C_F_D_U108_M6         C_F_D_N572160 Q46 0 0 CMOSN  
+ L=.43u  
+ W=.43u         
M_C_F_D_U35_M5         C_F_D_N568535 Q16 N116990 N116990 CMOSP  
+ L=.25u  
+ W=.93u         
M_C_F_D_U35_M6         C_F_D_N568535 Q16 0 0 CMOSN  
+ L=.43u  
+ W=.43u         
M_C_F_D_U24_M5         C_F_D_ND3SB2 C_F_D_N565082 N116990 N116990 CMOSP  
+ L=.186u  
+ W=.25u         
M_C_F_D_U24_M6         C_F_D_ND3SB2 C_F_D_N565082 C_F_D_U24_ND2 0 CMOSN  
+ L=.2u  
+ W=.232u         
M_C_F_D_U24_M2         C_F_D_U24_ND2 Q12 0 0 CMOSN  
+ L=.2u  
+ W=.232u         
M_C_F_D_U24_M4         C_F_D_ND3SB2 Q12 N116990 N116990 CMOSP  
+ L=.186u  
+ W=.25u         
M_C_F_D_U135_M16         X4 C_F_D_NDLSB28 N116990 N116990 CMOSP  
+ L=.67u  
+ W=.68u         
M_C_F_D_U135_M5         X4 C_F_D_NDLSB32 N116990 N116990 CMOSP  
+ L=.67u  
+ W=.68u         
M_C_F_D_U135_M11         X4 C_F_D_NDLSB25 N116990 N116990 CMOSP  
+ L=.67u  
+ W=.68u         
M_C_F_D_U135_M9         X4 C_F_D_NDLSB30 N116990 N116990 CMOSP  
+ L=.67u  
+ W=.68u         
M_C_F_D_U135_M1         X4 C_F_D_NDLSB25 C_F_D_U135_ND2 0 CMOSN  
+ L=.18u  
+ W=2.55u         
M_C_F_D_U135_M6         C_F_D_U135_ND3 C_F_D_NDLSB27 C_F_D_U135_ND4 0 CMOSN  
+ L=.18u  
+ W=2.55u         
M_C_F_D_U135_M7         C_F_D_U135_ND4 C_F_D_NDLSB28 C_F_D_U135_ND5 0 CMOSN  
+ L=.18u  
+ W=2.55u         
M_C_F_D_U135_M12         X4 C_F_D_NDLSB29 N116990 N116990 CMOSP  
+ L=.67u  
+ W=.68u         
M_C_F_D_U135_M2         C_F_D_U135_ND2 C_F_D_NDLSB26 C_F_D_U135_ND3 0 CMOSN  
+ L=.18u  
+ W=2.55u         
M_C_F_D_U135_M13         C_F_D_U135_ND6 C_F_D_NDLSB30 C_F_D_U135_ND7 0 CMOSN  
+ L=.18u  
+ W=2.55u         
M_C_F_D_U135_M10         C_F_D_U135_ND5 C_F_D_NDLSB29 C_F_D_U135_ND6 0 CMOSN  
+ L=.18u  
+ W=2.55u         
M_C_F_D_U135_M3         X4 C_F_D_NDLSB26 N116990 N116990 CMOSP  
+ L=.67u  
+ W=.68u         
M_C_F_D_U135_M14         C_F_D_U135_ND7 C_F_D_NDLSB31 C_F_D_U135_ND8 0 CMOSN  
+ L=.18u  
+ W=2.55u         
M_C_F_D_U135_M8         X4 C_F_D_NDLSB31 N116990 N116990 CMOSP  
+ L=.67u  
+ W=.68u         
M_C_F_D_U135_M4         X4 C_F_D_NDLSB27 N116990 N116990 CMOSP  
+ L=.67u  
+ W=.68u         
M_C_F_D_U135_M15         C_F_D_U135_ND8 C_F_D_NDLSB32 0 0 CMOSN  
+ L=.18u  
+ W=2.55u         
M_C_F_D_U115_M5         C_F_D_N573086 Q60 N116990 N116990 CMOSP  
+ L=.25u  
+ W=.93u         
M_C_F_D_U115_M6         C_F_D_N573086 Q60 0 0 CMOSN  
+ L=.43u  
+ W=.43u         
M_C_F_D_U90_M5         C_F_D_NDLSB8 C_F_D_N578686 N116990 N116990 CMOSP  
+ L=.186u  
+ W=.25u         
M_C_F_D_U90_M6         C_F_D_NDLSB8 C_F_D_N578686 C_F_D_U90_ND2 0 CMOSN  
+ L=.2u  
+ W=.232u         
M_C_F_D_U90_M2         C_F_D_U90_ND2 Q15 0 0 CMOSN  
+ L=.2u  
+ W=.232u         
M_C_F_D_U90_M4         C_F_D_NDLSB8 Q15 N116990 N116990 CMOSP  
+ L=.186u  
+ W=.25u         
M_C_F_D_U95_M5         C_F_D_NDLSB12 C_F_D_N578524 N116990 N116990 CMOSP  
+ L=.186u  
+ W=.25u         
M_C_F_D_U95_M6         C_F_D_NDLSB12 C_F_D_N578524 C_F_D_U95_ND2 0 CMOSN  
+ L=.2u  
+ W=.232u         
M_C_F_D_U95_M2         C_F_D_U95_ND2 Q23 0 0 CMOSN  
+ L=.2u  
+ W=.232u         
M_C_F_D_U95_M4         C_F_D_NDLSB12 Q23 N116990 N116990 CMOSP  
+ L=.186u  
+ W=.25u         
M_C_F_D_U133_M5         C_F_D_NDLSB25 C_F_D_N573020 N116990 N116990 CMOSP  
+ L=.186u  
+ W=.25u         
M_C_F_D_U133_M6         C_F_D_NDLSB25 C_F_D_N573020 C_F_D_U133_ND2 0 CMOSN  
+ L=.2u  
+ W=.232u         
M_C_F_D_U133_M2         C_F_D_U133_ND2 Q49 0 0 CMOSN  
+ L=.2u  
+ W=.232u         
M_C_F_D_U133_M4         C_F_D_NDLSB25 Q49 N116990 N116990 CMOSP  
+ L=.186u  
+ W=.25u         
M_C_F_D_U79_M5         C_F_D_N578534 Q24 N116990 N116990 CMOSP  
+ L=.25u  
+ W=.93u         
M_C_F_D_U79_M6         C_F_D_N578534 Q24 0 0 CMOSN  
+ L=.43u  
+ W=.43u         
M_C_F_D_U42_M5         C_F_D_N567831 Q48 N116990 N116990 CMOSP  
+ L=.25u  
+ W=.93u         
M_C_F_D_U42_M6         C_F_D_N567831 Q48 0 0 CMOSN  
+ L=.43u  
+ W=.43u         
M_C_F_D_U73_M5         C_F_D_N578662 Q10 N116990 N116990 CMOSP  
+ L=.25u  
+ W=.93u         
M_C_F_D_U73_M6         C_F_D_N578662 Q10 0 0 CMOSN  
+ L=.43u  
+ W=.43u         
M_C_F_D_U9_M5         C_F_D_ND4SB3 C_F_D_N259543 N116990 N116990 CMOSP  
+ L=.186u  
+ W=.25u         
M_C_F_D_U9_M6         C_F_D_ND4SB3 C_F_D_N259543 C_F_D_U9_ND2 0 CMOSN  
+ L=.2u  
+ W=.232u         
M_C_F_D_U9_M2         C_F_D_U9_ND2 Q40 0 0 CMOSN  
+ L=.2u  
+ W=.232u         
M_C_F_D_U9_M4         C_F_D_ND4SB3 Q40 N116990 N116990 CMOSP  
+ L=.186u  
+ W=.25u         
M_C_F_D_U56_M5         C_F_D_ND2SB11 C_F_D_N567811 N116990 N116990 CMOSP  
+ L=.186u  
+ W=.25u         
M_C_F_D_U56_M6         C_F_D_ND2SB11 C_F_D_N567811 C_F_D_U56_ND2 0 CMOSN  
+ L=.2u  
+ W=.232u         
M_C_F_D_U56_M2         C_F_D_U56_ND2 Q42 0 0 CMOSN  
+ L=.2u  
+ W=.232u         
M_C_F_D_U56_M4         C_F_D_ND2SB11 Q42 N116990 N116990 CMOSP  
+ L=.186u  
+ W=.25u         
M_C_F_D_U23_M5         C_F_D_3SB C_F_D_N565340 N116990 N116990 CMOSP  
+ L=.25u  
+ W=.93u         
M_C_F_D_U23_M6         C_F_D_3SB C_F_D_N565340 0 0 CMOSN  
+ L=.43u  
+ W=.43u         
M_C_F_D_U123_M5         C_F_D_NDLSB23 C_F_D_N572144 N116990 N116990 CMOSP  
+ L=.186u  
+ W=.25u         
M_C_F_D_U123_M6         C_F_D_NDLSB23 C_F_D_N572144 C_F_D_U123_ND2 0 CMOSN  
+ L=.2u  
+ W=.232u         
M_C_F_D_U123_M2         C_F_D_U123_ND2 Q45 0 0 CMOSN  
+ L=.2u  
+ W=.232u         
M_C_F_D_U123_M4         C_F_D_NDLSB23 Q45 N116990 N116990 CMOSP  
+ L=.186u  
+ W=.25u         
M_C_F_D_U63_M16         C_F_D_N567419 C_F_D_ND2SB4 N116990 N116990 CMOSP  
+ L=.67u  
+ W=.68u         
M_C_F_D_U63_M5         C_F_D_N567419 C_F_D_ND2SB8 N116990 N116990 CMOSP  
+ L=.67u  
+ W=.68u         
M_C_F_D_U63_M11         C_F_D_N567419 C_F_D_ND2SB1 N116990 N116990 CMOSP  
+ L=.67u  
+ W=.68u         
M_C_F_D_U63_M9         C_F_D_N567419 C_F_D_ND2SB6 N116990 N116990 CMOSP  
+ L=.67u  
+ W=.68u         
M_C_F_D_U63_M1         C_F_D_N567419 C_F_D_ND2SB1 C_F_D_U63_ND2 0 CMOSN  
+ L=.18u  
+ W=2.55u         
M_C_F_D_U63_M6         C_F_D_U63_ND3 C_F_D_ND2SB3 C_F_D_U63_ND4 0 CMOSN  
+ L=.18u  
+ W=2.55u         
M_C_F_D_U63_M7         C_F_D_U63_ND4 C_F_D_ND2SB4 C_F_D_U63_ND5 0 CMOSN  
+ L=.18u  
+ W=2.55u         
M_C_F_D_U63_M12         C_F_D_N567419 C_F_D_ND2SB5 N116990 N116990 CMOSP  
+ L=.67u  
+ W=.68u         
M_C_F_D_U63_M2         C_F_D_U63_ND2 C_F_D_ND2SB2 C_F_D_U63_ND3 0 CMOSN  
+ L=.18u  
+ W=2.55u         
M_C_F_D_U63_M13         C_F_D_U63_ND6 C_F_D_ND2SB6 C_F_D_U63_ND7 0 CMOSN  
+ L=.18u  
+ W=2.55u         
M_C_F_D_U63_M10         C_F_D_U63_ND5 C_F_D_ND2SB5 C_F_D_U63_ND6 0 CMOSN  
+ L=.18u  
+ W=2.55u         
M_C_F_D_U63_M3         C_F_D_N567419 C_F_D_ND2SB2 N116990 N116990 CMOSP  
+ L=.67u  
+ W=.68u         
M_C_F_D_U63_M14         C_F_D_U63_ND7 C_F_D_ND2SB7 C_F_D_U63_ND8 0 CMOSN  
+ L=.18u  
+ W=2.55u         
M_C_F_D_U63_M8         C_F_D_N567419 C_F_D_ND2SB7 N116990 N116990 CMOSP  
+ L=.67u  
+ W=.68u         
M_C_F_D_U63_M4         C_F_D_N567419 C_F_D_ND2SB3 N116990 N116990 CMOSP  
+ L=.67u  
+ W=.68u         
M_C_F_D_U63_M15         C_F_D_U63_ND8 C_F_D_ND2SB8 0 0 CMOSN  
+ L=.18u  
+ W=2.55u         
M_C_F_D_U21_M5         C_F_D_N564924 Q56 N116990 N116990 CMOSP  
+ L=.25u  
+ W=.93u         
M_C_F_D_U21_M6         C_F_D_N564924 Q56 0 0 CMOSN  
+ L=.43u  
+ W=.43u         
M_C_F_D_U134_M16         X3 C_F_D_NDLSB20 N116990 N116990 CMOSP  
+ L=.67u  
+ W=.68u         
M_C_F_D_U134_M5         X3 C_F_D_NDLSB24 N116990 N116990 CMOSP  
+ L=.67u  
+ W=.68u         
M_C_F_D_U134_M11         X3 C_F_D_NDLSB17 N116990 N116990 CMOSP  
+ L=.67u  
+ W=.68u         
M_C_F_D_U134_M9         X3 C_F_D_NDLSB22 N116990 N116990 CMOSP  
+ L=.67u  
+ W=.68u         
M_C_F_D_U134_M1         X3 C_F_D_NDLSB17 C_F_D_U134_ND2 0 CMOSN  
+ L=.18u  
+ W=2.55u         
M_C_F_D_U134_M6         C_F_D_U134_ND3 C_F_D_NDLSB19 C_F_D_U134_ND4 0 CMOSN  
+ L=.18u  
+ W=2.55u         
M_C_F_D_U134_M7         C_F_D_U134_ND4 C_F_D_NDLSB20 C_F_D_U134_ND5 0 CMOSN  
+ L=.18u  
+ W=2.55u         
M_C_F_D_U134_M12         X3 C_F_D_NDLSB21 N116990 N116990 CMOSP  
+ L=.67u  
+ W=.68u         
M_C_F_D_U134_M2         C_F_D_U134_ND2 C_F_D_NDLSB18 C_F_D_U134_ND3 0 CMOSN  
+ L=.18u  
+ W=2.55u         
M_C_F_D_U134_M13         C_F_D_U134_ND6 C_F_D_NDLSB22 C_F_D_U134_ND7 0 CMOSN  
+ L=.18u  
+ W=2.55u         
M_C_F_D_U134_M10         C_F_D_U134_ND5 C_F_D_NDLSB21 C_F_D_U134_ND6 0 CMOSN  
+ L=.18u  
+ W=2.55u         
M_C_F_D_U134_M3         X3 C_F_D_NDLSB18 N116990 N116990 CMOSP  
+ L=.67u  
+ W=.68u         
M_C_F_D_U134_M14         C_F_D_U134_ND7 C_F_D_NDLSB23 C_F_D_U134_ND8 0 CMOSN  
+ L=.18u  
+ W=2.55u         
M_C_F_D_U134_M8         X3 C_F_D_NDLSB23 N116990 N116990 CMOSP  
+ L=.67u  
+ W=.68u         
M_C_F_D_U134_M4         X3 C_F_D_NDLSB19 N116990 N116990 CMOSP  
+ L=.67u  
+ W=.68u         
M_C_F_D_U134_M15         C_F_D_U134_ND8 C_F_D_NDLSB24 0 0 CMOSN  
+ L=.18u  
+ W=2.55u         
M_C_F_D_U3_M5         C_F_D_N259565 Q16 N116990 N116990 CMOSP  
+ L=.25u  
+ W=.93u         
M_C_F_D_U3_M6         C_F_D_N259565 Q16 0 0 CMOSN  
+ L=.43u  
+ W=.43u         
M_C_F_D_U114_M5         C_F_D_N573076 Q58 N116990 N116990 CMOSP  
+ L=.25u  
+ W=.93u         
M_C_F_D_U114_M6         C_F_D_N573076 Q58 0 0 CMOSN  
+ L=.43u  
+ W=.43u         
M_C_F_D_U6_M5         C_F_D_5SB C_F_D_ND5SB1 N116990 N116990 CMOSP  
+ L=.186u  
+ W=.25u         
M_C_F_D_U6_M6         C_F_D_5SB C_F_D_ND5SB1 C_F_D_U6_ND2 0 CMOSN  
+ L=.2u  
+ W=.232u         
M_C_F_D_U6_M2         C_F_D_U6_ND2 C_F_D_ND5SB2 0 0 CMOSN  
+ L=.2u  
+ W=.232u         
M_C_F_D_U6_M4         C_F_D_5SB C_F_D_ND5SB2 N116990 N116990 CMOSP  
+ L=.186u  
+ W=.25u         
M_C_F_D_U102_M5         C_F_D_N572074 Q34 N116990 N116990 CMOSP  
+ L=.25u  
+ W=.93u         
M_C_F_D_U102_M6         C_F_D_N572074 Q34 0 0 CMOSN  
+ L=.43u  
+ W=.43u         
M_C_F_D_U36_M5         C_F_D_N568545 Q20 N116990 N116990 CMOSP  
+ L=.25u  
+ W=.93u         
M_C_F_D_U36_M6         C_F_D_N568545 Q20 0 0 CMOSN  
+ L=.43u  
+ W=.43u         
M_C_F_D_U68_M5         C_F_D_NDLSB1 Q1 N116990 N116990 CMOSP  
+ L=.25u  
+ W=.93u         
M_C_F_D_U68_M6         C_F_D_NDLSB1 Q1 0 0 CMOSN  
+ L=.43u  
+ W=.43u         
M_C_F_D_U85_M5         C_F_D_NDLSB3 C_F_D_N578622 N116990 N116990 CMOSP  
+ L=.186u  
+ W=.25u         
M_C_F_D_U85_M6         C_F_D_NDLSB3 C_F_D_N578622 C_F_D_U85_ND2 0 CMOSN  
+ L=.2u  
+ W=.232u         
M_C_F_D_U85_M2         C_F_D_U85_ND2 Q5 0 0 CMOSN  
+ L=.2u  
+ W=.232u         
M_C_F_D_U85_M4         C_F_D_NDLSB3 Q5 N116990 N116990 CMOSP  
+ L=.186u  
+ W=.25u         
M_C_F_D_U107_M5         C_F_D_N572144 Q44 N116990 N116990 CMOSP  
+ L=.25u  
+ W=.93u         
M_C_F_D_U107_M6         C_F_D_N572144 Q44 0 0 CMOSN  
+ L=.43u  
+ W=.43u         
M_C_F_D_U140_M7         C_F_D_LSB C_F_D_NDX1LSB N116990 N116990 CMOSP  
+ L=.33u  
+ W=.25u         
M_C_F_D_U140_M8         C_F_D_LSB C_F_D_NDX2LSB N116990 N116990 CMOSP  
+ L=.33u  
+ W=.25u         
M_C_F_D_U140_M12         C_F_D_LSB C_F_D_NDX4LSB N116990 N116990 CMOSP  
+ L=.33u  
+ W=.25u         
M_C_F_D_U140_M9         C_F_D_LSB C_F_D_NDX3LSB N116990 N116990 CMOSP  
+ L=.33u  
+ W=.25u         
M_C_F_D_U140_M1         C_F_D_LSB C_F_D_NDX1LSB C_F_D_U140_ND2 0 CMOSN  
+ L=.18u  
+ W=.47u         
M_C_F_D_U140_M10         C_F_D_U140_ND3 C_F_D_NDX3LSB C_F_D_U140_ND4 0 CMOSN  
+ L=.18u  
+ W=.47u         
M_C_F_D_U140_M3         C_F_D_U140_ND2 C_F_D_NDX2LSB C_F_D_U140_ND3 0 CMOSN  
+ L=.18u  
+ W=.47u         
M_C_F_D_U140_M11         C_F_D_U140_ND4 C_F_D_NDX4LSB 0 0 CMOSN  
+ L=.18u  
+ W=.47u         
M_C_F_D_U78_M5         C_F_D_N578552 Q26 N116990 N116990 CMOSP  
+ L=.25u  
+ W=.93u         
M_C_F_D_U78_M6         C_F_D_N578552 Q26 0 0 CMOSN  
+ L=.43u  
+ W=.43u         
M_C_F_D_U60_M5         C_F_D_ND2SB15 C_F_D_N567851 N116990 N116990 CMOSP  
+ L=.186u  
+ W=.25u         
M_C_F_D_U60_M6         C_F_D_ND2SB15 C_F_D_N567851 C_F_D_U60_ND2 0 CMOSN  
+ L=.2u  
+ W=.232u         
M_C_F_D_U60_M2         C_F_D_U60_ND2 Q58 0 0 CMOSN  
+ L=.2u  
+ W=.232u         
M_C_F_D_U60_M4         C_F_D_ND2SB15 Q58 N116990 N116990 CMOSP  
+ L=.186u  
+ W=.25u         
M_C_F_D_U120_M5         C_F_D_NDLSB20 C_F_D_N793529 N116990 N116990 CMOSP  
+ L=.186u  
+ W=.25u         
M_C_F_D_U120_M6         C_F_D_NDLSB20 C_F_D_N793529 C_F_D_U120_ND2 0 CMOSN  
+ L=.2u  
+ W=.232u         
M_C_F_D_U120_M2         C_F_D_U120_ND2 Q39 0 0 CMOSN  
+ L=.2u  
+ W=.232u         
M_C_F_D_U120_M4         C_F_D_NDLSB20 Q39 N116990 N116990 CMOSP  
+ L=.186u  
+ W=.25u         
M_C_F_D_U19_M5         C_F_D_N565120 Q40 N116990 N116990 CMOSP  
+ L=.25u  
+ W=.93u         
M_C_F_D_U19_M6         C_F_D_N565120 Q40 0 0 CMOSN  
+ L=.43u  
+ W=.43u         
M_C_F_D_U41_M5         C_F_D_N567841 Q52 N116990 N116990 CMOSP  
+ L=.25u  
+ W=.93u         
M_C_F_D_U41_M6         C_F_D_N567841 Q52 0 0 CMOSN  
+ L=.43u  
+ W=.43u         
M_C_F_D_U118_M5         C_F_D_NDLSB18 C_F_D_N572074 N116990 N116990 CMOSP  
+ L=.186u  
+ W=.25u         
M_C_F_D_U118_M6         C_F_D_NDLSB18 C_F_D_N572074 C_F_D_U118_ND2 0 CMOSN  
+ L=.2u  
+ W=.232u         
M_C_F_D_U118_M2         C_F_D_U118_ND2 Q35 0 0 CMOSN  
+ L=.2u  
+ W=.232u         
M_C_F_D_U118_M4         C_F_D_NDLSB18 Q35 N116990 N116990 CMOSP  
+ L=.186u  
+ W=.25u         
M_C_F_D_U132_M5         C_F_D_NDLSB26 C_F_D_N573036 N116990 N116990 CMOSP  
+ L=.186u  
+ W=.25u         
M_C_F_D_U132_M6         C_F_D_NDLSB26 C_F_D_N573036 C_F_D_U132_ND2 0 CMOSN  
+ L=.2u  
+ W=.232u         
M_C_F_D_U132_M2         C_F_D_U132_ND2 Q51 0 0 CMOSN  
+ L=.2u  
+ W=.232u         
M_C_F_D_U132_M4         C_F_D_NDLSB26 Q51 N116990 N116990 CMOSP  
+ L=.186u  
+ W=.25u         
M_C_F_D_U34_M5         C_F_D_N568523 Q12 N116990 N116990 CMOSP  
+ L=.25u  
+ W=.93u         
M_C_F_D_U34_M6         C_F_D_N568523 Q12 0 0 CMOSN  
+ L=.43u  
+ W=.43u         
M_C_F_D_U137_M5         C_F_D_NDX2LSB X2 N116990 N116990 CMOSP  
+ L=.25u  
+ W=.93u         
M_C_F_D_U137_M6         C_F_D_NDX2LSB X2 0 0 CMOSN  
+ L=.43u  
+ W=.43u         
M_C_F_D_U94_M5         C_F_D_NDLSB13 C_F_D_N578534 N116990 N116990 CMOSP  
+ L=.186u  
+ W=.25u         
M_C_F_D_U94_M6         C_F_D_NDLSB13 C_F_D_N578534 C_F_D_U94_ND2 0 CMOSN  
+ L=.2u  
+ W=.232u         
M_C_F_D_U94_M2         C_F_D_U94_ND2 Q25 0 0 CMOSN  
+ L=.2u  
+ W=.232u         
M_C_F_D_U94_M4         C_F_D_NDLSB13 Q25 N116990 N116990 CMOSP  
+ L=.186u  
+ W=.25u         
M_C_F_D_U51_M5         C_F_D_ND2SB6 C_F_D_N568545 N116990 N116990 CMOSP  
+ L=.186u  
+ W=.25u         
M_C_F_D_U51_M6         C_F_D_ND2SB6 C_F_D_N568545 C_F_D_U51_ND2 0 CMOSN  
+ L=.2u  
+ W=.232u         
M_C_F_D_U51_M2         C_F_D_U51_ND2 Q22 0 0 CMOSN  
+ L=.2u  
+ W=.232u         
M_C_F_D_U51_M4         C_F_D_ND2SB6 Q22 N116990 N116990 CMOSP  
+ L=.186u  
+ W=.25u         
M_C_F_D_U89_M5         C_F_D_NDLSB7 C_F_D_N578674 N116990 N116990 CMOSP  
+ L=.186u  
+ W=.25u         
M_C_F_D_U89_M6         C_F_D_NDLSB7 C_F_D_N578674 C_F_D_U89_ND2 0 CMOSN  
+ L=.2u  
+ W=.232u         
M_C_F_D_U89_M2         C_F_D_U89_ND2 Q13 0 0 CMOSN  
+ L=.2u  
+ W=.232u         
M_C_F_D_U89_M4         C_F_D_NDLSB7 Q13 N116990 N116990 CMOSP  
+ L=.186u  
+ W=.25u         
M_C_F_D_U47_M5         C_F_D_ND2SB2 C_F_D_N568499 N116990 N116990 CMOSP  
+ L=.186u  
+ W=.25u         
M_C_F_D_U47_M6         C_F_D_ND2SB2 C_F_D_N568499 C_F_D_U47_ND2 0 CMOSN  
+ L=.2u  
+ W=.232u         
M_C_F_D_U47_M2         C_F_D_U47_ND2 Q6 0 0 CMOSN  
+ L=.2u  
+ W=.232u         
M_C_F_D_U47_M4         C_F_D_ND2SB2 Q6 N116990 N116990 CMOSP  
+ L=.186u  
+ W=.25u         
M_C_F_D_U72_M5         C_F_D_N578650 Q8 N116990 N116990 CMOSP  
+ L=.25u  
+ W=.93u         
M_C_F_D_U72_M6         C_F_D_N578650 Q8 0 0 CMOSN  
+ L=.43u  
+ W=.43u         
M_C_F_D_U17_M5         C_F_D_N565104 Q24 N116990 N116990 CMOSP  
+ L=.25u  
+ W=.93u         
M_C_F_D_U17_M6         C_F_D_N565104 Q24 0 0 CMOSN  
+ L=.43u  
+ W=.43u         
M_C_F_D_U113_M5         C_F_D_N573066 Q56 N116990 N116990 CMOSP  
+ L=.25u  
+ W=.93u         
M_C_F_D_U113_M6         C_F_D_N573066 Q56 0 0 CMOSN  
+ L=.43u  
+ W=.43u         
M_C_F_D_U100_M16         X2 C_F_D_NDLSB12 N116990 N116990 CMOSP  
+ L=.67u  
+ W=.68u         
M_C_F_D_U100_M5         X2 C_F_D_NDLSB16 N116990 N116990 CMOSP  
+ L=.67u  
+ W=.68u         
M_C_F_D_U100_M11         X2 C_F_D_NDLSB9 N116990 N116990 CMOSP  
+ L=.67u  
+ W=.68u         
M_C_F_D_U100_M9         X2 C_F_D_NDLSB14 N116990 N116990 CMOSP  
+ L=.67u  
+ W=.68u         
M_C_F_D_U100_M1         X2 C_F_D_NDLSB9 C_F_D_U100_ND2 0 CMOSN  
+ L=.18u  
+ W=2.55u         
M_C_F_D_U100_M6         C_F_D_U100_ND3 C_F_D_NDLSB11 C_F_D_U100_ND4 0 CMOSN  
+ L=.18u  
+ W=2.55u         
M_C_F_D_U100_M7         C_F_D_U100_ND4 C_F_D_NDLSB12 C_F_D_U100_ND5 0 CMOSN  
+ L=.18u  
+ W=2.55u         
M_C_F_D_U100_M12         X2 C_F_D_NDLSB13 N116990 N116990 CMOSP  
+ L=.67u  
+ W=.68u         
M_C_F_D_U100_M2         C_F_D_U100_ND2 C_F_D_NDLSB10 C_F_D_U100_ND3 0 CMOSN  
+ L=.18u  
[...]

(C_F_D_NDLSB2)    3.3000              (C_F_D_NDLSB3)    3.3000                  

(C_F_D_NDLSB4)    3.3000              (C_F_D_NDLSB5)    3.3000                  

(C_F_D_NDLSB6)    3.3000              (C_F_D_NDLSB7)    3.3000                  

(C_F_D_NDLSB8)    3.3000              (C_F_D_NDLSB9)    3.3000                  

(C_F_D_U6_ND2) 1.057E-06              (C_F_D_U7_ND2) 1.039E-06                  

(C_F_D_U8_ND2) 1.039E-06              (C_F_D_U9_ND2) 1.039E-06                  

(C_F_C10_NDNEG)    2.4078             (C_F_C10_NDPOS)     .5156                 

(C_F_C11_NDNEG)    2.4078             (C_F_C11_NDPOS)     .5106                 

(C_F_C12_NDNEG)    2.4078             (C_F_C12_NDPOS)     .5062                 

(C_F_C13_NDNEG)    2.4078             (C_F_C13_NDPOS)     .5023                 

(C_F_C14_NDNEG)    2.4078             (C_F_C14_NDPOS)     .4989                 

(C_F_C15_NDNEG)    2.4078             (C_F_C15_NDPOS)     .4958                 

(C_F_C16_NDNEG)    2.4078             (C_F_C16_NDPOS)     .4930                 

(C_F_C17_NDNEG)    2.4078             (C_F_C17_NDPOS)     .4904                 

(C_F_C18_NDNEG)    2.4078             (C_F_C18_NDPOS)     .4881                 

(C_F_C19_NDNEG)    2.4078             (C_F_C19_NDPOS)     .4860                 

(C_F_C1_NDBIAS)     .4275             (C_F_C20_NDNEG)    2.4078                 

(C_F_C20_NDPOS)     .4840             (C_F_C21_NDNEG)    2.4078                 

(C_F_C21_NDPOS)     .4822             (C_F_C22_NDNEG)    2.4078                 

(C_F_C22_NDPOS)     .4805             (C_F_C23_NDNEG)    2.4078                 

(C_F_C23_NDPOS)     .4789             (C_F_C24_NDNEG)    2.4078                 

(C_F_C24_NDPOS)     .4774             (C_F_C25_NDNEG)    2.4078                 

(C_F_C25_NDPOS)     .4760             (C_F_C26_NDNEG)    2.4079                 

(C_F_C26_NDPOS)     .4747             (C_F_C27_NDNEG)    2.4079                 

(C_F_C27_NDPOS)     .4735             (C_F_C28_NDNEG)    2.4079                 

(C_F_C28_NDPOS)     .4723             (C_F_C29_NDNEG)    2.4079                 

(C_F_C29_NDPOS)     .4712             (C_F_C2_NDBIAS)     .4284                 

(C_F_C30_NDNEG)    2.4079             (C_F_C30_NDPOS)     .4702                 

(C_F_C31_NDNEG)    2.4079             (C_F_C31_NDPOS)     .4692                 

(C_F_C32_NDNEG)    2.4079             (C_F_C32_NDPOS)     .4683                 

(C_F_C33_NDNEG)    2.4079             (C_F_C33_NDPOS)     .4674                 

(C_F_C34_NDNEG)    2.4079             (C_F_C34_NDPOS)     .4666                 

(C_F_C35_NDNEG)    2.4079             (C_F_C35_NDPOS)     .4658                 

(C_F_C36_NDNEG)    2.4079             (C_F_C36_NDPOS)     .4650                 

(C_F_C37_NDNEG)    2.4079             (C_F_C37_NDPOS)     .4643                 

(C_F_C38_NDNEG)    2.4079             (C_F_C38_NDPOS)     .4636                 

(C_F_C39_NDNEG)    2.4079             (C_F_C39_NDPOS)     .4629                 

(C_F_C3_NDBIAS)     .4288             (C_F_C40_NDNEG)    2.4079                 

(C_F_C40_NDPOS)     .4623             (C_F_C41_NDNEG)    2.4079                 

(C_F_C41_NDPOS)     .4616             (C_F_C42_NDNEG)    2.4079                 

(C_F_C42_NDPOS)     .4611             (C_F_C43_NDNEG)    2.4079                 

(C_F_C43_NDPOS)     .4605             (C_F_C44_NDNEG)    2.4079                 

(C_F_C44_NDPOS)     .4599             (C_F_C45_NDNEG)    2.4079                 

(C_F_C45_NDPOS)     .4594             (C_F_C46_NDNEG)    2.4079                 

(C_F_C46_NDPOS)     .4589             (C_F_C47_NDNEG)    2.4079                 

(C_F_C47_NDPOS)     .4584             (C_F_C48_NDNEG)    2.4079                 

(C_F_C48_NDPOS)     .4580             (C_F_C49_NDNEG)    2.4079                 

(C_F_C49_NDPOS)     .4575             (C_F_C4_NDBIAS)     .4289                 

(C_F_C50_NDNEG)    2.4079             (C_F_C50_NDPOS)     .4571                 

(C_F_C51_NDNEG)    2.4079             (C_F_C51_NDPOS)     .4567                 

(C_F_C52_NDNEG)    2.4079             (C_F_C52_NDPOS)     .4563                 

(C_F_C53_NDNEG)    2.4079             (C_F_C53_NDPOS)     .4559                 

(C_F_C54_NDNEG)    2.4079             (C_F_C54_NDPOS)     .4555                 

(C_F_C55_NDNEG)    2.4079             (C_F_C55_NDPOS)     .4551                 

(C_F_C56_NDNEG)    2.4079             (C_F_C56_NDPOS)     .4548                 

(C_F_C57_NDNEG)    2.4079             (C_F_C57_NDPOS)     .4544                 

(C_F_C58_NDNEG)    2.4079             (C_F_C58_NDPOS)     .4541                 

(C_F_C59_NDNEG)    2.4079             (C_F_C59_NDPOS)     .4538                 

(C_F_C5_NDBIAS)     .4289             (C_F_C60_NDNEG)    2.4079                 

(C_F_C60_NDPOS)     .4535             (C_F_C61_NDNEG)    2.4079                 

(C_F_C61_NDPOS)     .4532             (C_F_C62_NDNEG)    2.4079                 

(C_F_C62_NDPOS)     .4529             (C_F_C63_NDNEG)    2.4079                 

(C_F_C63_NDPOS)     .4526             (C_F_C6_NDBIAS)     .4289                 

(C_F_C7_NDBIAS)     .4289             (C_F_C8_NDBIAS)     .4289                 

(C_F_C9_NDBIAS)     .4289             (C_F_D_N259339) 441.6E-09                 

(C_F_D_N259543) 441.6E-09             (C_F_D_N259565) 447.3E-09                 

(C_F_D_N259605) 439.2E-09             (C_F_D_N564920) 441.6E-09                 

(C_F_D_N564924) 438.5E-09             (C_F_D_N565082) 455.8E-09                 

(C_F_D_N565094) 447.3E-09             (C_F_D_N565104) 443.7E-09                 

(C_F_D_N565120) 440.2E-09             (C_F_D_N565130) 439.2E-09                 

(C_F_D_N565340) 68.88E-09             (C_F_D_N565498)    3.3000                 

(C_F_D_N567401) 68.88E-09             (C_F_D_N567419)    3.3000                 

(C_F_D_N567801) 440.8E-09             (C_F_D_N567811) 440.2E-09                 

(C_F_D_N567821) 439.7E-09             (C_F_D_N567831) 439.2E-09                 

(C_F_D_N567841) 438.9E-09             (C_F_D_N567851) 438.5E-09                 

(C_F_D_N567861) 438.2E-09             (C_F_D_N568485)    3.3000                 

(C_F_D_N568499) 471.7E-09             (C_F_D_N568511) 455.8E-09                 

(C_F_D_N568523) 450.4E-09             (C_F_D_N568535) 447.3E-09                 

(C_F_D_N568545) 445.2E-09             (C_F_D_N568555) 443.7E-09                 

(C_F_D_N568565) 442.5E-09             (C_F_D_N569141) 441.6E-09                 

(C_F_D_N572064) 441.6E-09             (C_F_D_N572074) 441.2E-09                 

(C_F_D_N572104) 440.8E-09             (C_F_D_N572124) 440.2E-09                 

(C_F_D_N572134) 439.9E-09             (C_F_D_N572144) 439.7E-09                 

(C_F_D_N572160) 439.5E-09             (C_F_D_N573020) 439.2E-09                 

(C_F_D_N573036) 439.0E-09             (C_F_D_N573046) 438.9E-09                 

(C_F_D_N573056) 438.7E-09             (C_F_D_N573066) 438.5E-09                 

(C_F_D_N573076) 438.4E-09             (C_F_D_N573086) 438.2E-09                 

(C_F_D_N573096) 438.1E-09             (C_F_D_N578480) 447.3E-09                 

(C_F_D_N578504) 446.1E-09             (C_F_D_N578514) 445.2E-09                 

(C_F_D_N578524) 444.4E-09             (C_F_D_N578534) 443.7E-09                 

(C_F_D_N578552) 443.0E-09             (C_F_D_N578562) 442.5E-09                 

(C_F_D_N578578) 442.0E-09             (C_F_D_N578608) 2.170E-06                 

(C_F_D_N578622) 471.7E-09             (C_F_D_N578636) 460.8E-09                 

(C_F_D_N578650) 455.8E-09             (C_F_D_N578662) 452.7E-09                 

(C_F_D_N578674) 450.4E-09             (C_F_D_N578686) 448.7E-09                 

(C_F_D_N793529) 440.5E-09             (C_F_D_N941987) 117.3E-09                 

(C_F_D_ND2SB10)    3.3000             (C_F_D_ND2SB11)    3.3000                 

(C_F_D_ND2SB12)    3.3000             (C_F_D_ND2SB13)    3.3000                 

(C_F_D_ND2SB14)    3.3000             (C_F_D_ND2SB15)    3.3000                 

(C_F_D_ND2SB16)    3.3000             (C_F_D_NDLSB10)    3.3000                 

(C_F_D_NDLSB11)    3.3000             (C_F_D_NDLSB12)    3.3000                 

(C_F_D_NDLSB13)    3.3000             (C_F_D_NDLSB14)    3.3000                 

(C_F_D_NDLSB15)    3.3000             (C_F_D_NDLSB16)    3.3000                 

(C_F_D_NDLSB17)    3.3000             (C_F_D_NDLSB18)    3.3000                 

(C_F_D_NDLSB19)    3.3000             (C_F_D_NDLSB20)    3.3000                 

(C_F_D_NDLSB21)    3.3000             (C_F_D_NDLSB22)    3.3000                 

(C_F_D_NDLSB23)    3.3000             (C_F_D_NDLSB24)    3.3000                 

(C_F_D_NDLSB25)    3.3000             (C_F_D_NDLSB26)    3.3000                 

(C_F_D_NDLSB27)    3.3000             (C_F_D_NDLSB28)    3.3000                 

(C_F_D_NDLSB29)    3.3000             (C_F_D_NDLSB30)    3.3000                 

(C_F_D_NDLSB31)    3.3000             (C_F_D_NDLSB32)    3.3000                 

(C_F_D_NDX1LSB)    3.3000             (C_F_D_NDX2LSB)    3.3000                 

(C_F_D_NDX3LSB)    3.3000             (C_F_D_NDX4LSB)    3.3000                 

(C_F_D_U10_ND2) 1.039E-06             (C_F_D_U12_ND2) 1.236E-06                 

(C_F_D_U12_ND3) 824.3E-09             (C_F_D_U12_ND4) 412.1E-09                 

(C_F_D_U13_ND2) 913.2E-09             (C_F_D_U13_ND3) 782.7E-09                 

(C_F_D_U13_ND4) 652.3E-09             (C_F_D_U13_ND5) 521.8E-09                 

(C_F_D_U13_ND6) 391.4E-09             (C_F_D_U13_ND7) 260.9E-09                 

(C_F_D_U13_ND8) 130.5E-09             (C_F_D_U24_ND2) 1.039E-06                 

(C_F_D_U25_ND2) 1.039E-06             (C_F_D_U26_ND2) 1.039E-06                 

(C_F_D_U27_ND2) 1.039E-06             (C_F_D_U28_ND2) 1.039E-06                 

(C_F_D_U29_ND2) 1.039E-06             (C_F_D_U30_ND2) 1.039E-06                 

(C_F_D_U47_ND2) 1.039E-06             (C_F_D_U48_ND2) 1.039E-06                 

(C_F_D_U49_ND2) 1.039E-06             (C_F_D_U50_ND2) 1.039E-06                 

(C_F_D_U51_ND2) 1.039E-06             (C_F_D_U52_ND2) 1.039E-06                 

(C_F_D_U53_ND2) 1.039E-06             (C_F_D_U54_ND2) 1.039E-06                 

(C_F_D_U55_ND2) 1.039E-06             (C_F_D_U56_ND2) 1.039E-06                 

(C_F_D_U57_ND2) 1.039E-06             (C_F_D_U58_ND2) 1.039E-06                 

(C_F_D_U59_ND2) 1.039E-06             (C_F_D_U60_ND2) 1.039E-06                 

(C_F_D_U61_ND2) 1.039E-06             (C_F_D_U62_ND2)    2.7916                 

(C_F_D_U63_ND2) 913.2E-09             (C_F_D_U63_ND3) 782.8E-09                 

(C_F_D_U63_ND4) 652.3E-09             (C_F_D_U63_ND5) 521.8E-09                 

(C_F_D_U63_ND6) 391.4E-09             (C_F_D_U63_ND7) 260.9E-09                 

(C_F_D_U63_ND8) 130.5E-09             (C_F_D_U64_ND2) 102.7E-09                 

(C_F_D_U64_ND3) 87.99E-09             (C_F_D_U64_ND4) 73.33E-09                 

(C_F_D_U64_ND5) 58.66E-09             (C_F_D_U64_ND6) 44.00E-09                 

(C_F_D_U64_ND7) 29.33E-09             (C_F_D_U64_ND8) 14.67E-09                 

(C_F_D_U84_ND2) 1.038E-06             (C_F_D_U85_ND2) 1.039E-06                 

(C_F_D_U86_ND2) 1.039E-06             (C_F_D_U87_ND2) 1.039E-06                 

(C_F_D_U88_ND2) 1.039E-06             (C_F_D_U89_ND2) 1.039E-06                 

(C_F_D_U90_ND2) 1.039E-06             (C_F_D_U91_ND2) 1.039E-06                 

(C_F_D_U92_ND2) 1.039E-06             (C_F_D_U93_ND2) 1.039E-06                 

(C_F_D_U94_ND2) 1.039E-06             (C_F_D_U95_ND2) 1.039E-06                 

(C_F_D_U96_ND2) 1.039E-06             (C_F_D_U97_ND2) 1.039E-06                 

(C_F_D_U98_ND2) 1.039E-06             (C_F_D_U99_ND2) 102.7E-09                 

(C_F_D_U99_ND3) 87.99E-09             (C_F_D_U99_ND4) 73.33E-09                 

(C_F_D_U99_ND5) 58.66E-09             (C_F_D_U99_ND6) 44.00E-09                 

(C_F_D_U99_ND7) 29.33E-09             (C_F_D_U99_ND8) 14.67E-09                 

(C_F_R1_N62128) 604.2E-09             (C_F_R1_N62152)    3.3000                 

(C_F_R2_N62128)    3.3000             (C_F_R2_N62152) 604.2E-09                 

(C_F_R3_N62128)    3.3000             (C_F_R3_N62152) 604.2E-09                 

(C_F_R4_N62128)    3.3000             (C_F_R4_N62152) 604.2E-09                 

(C_F_R5_N62128)    3.3000             (C_F_R5_N62152) 604.2E-09                 

(C_F_R6_N62128)    3.3000             (C_F_R6_N62152) 2.367E-06                 

(C_F_C10_NDBIAS)     .4289            (C_F_C11_NDBIAS)     .4289                

(C_F_C12_NDBIAS)     .4289            (C_F_C13_NDBIAS)     .4289                

(C_F_C14_NDBIAS)     .4289            (C_F_C15_NDBIAS)     .4289                

(C_F_C16_NDBIAS)     .4289            (C_F_C17_NDBIAS)     .4289                

(C_F_C18_NDBIAS)     .4289            (C_F_C19_NDBIAS)     .4289                

(C_F_C20_NDBIAS)     .4289            (C_F_C21_NDBIAS)     .4289                

(C_F_C22_NDBIAS)     .4289            (C_F_C23_NDBIAS)     .4289                

(C_F_C24_NDBIAS)     .4289            (C_F_C25_NDBIAS)     .4289                

(C_F_C26_NDBIAS)     .4289            (C_F_C27_NDBIAS)     .4289                

(C_F_C28_NDBIAS)     .4289            (C_F_C29_NDBIAS)     .4289                

(C_F_C30_NDBIAS)     .4289            (C_F_C31_NDBIAS)     .4289                

(C_F_C32_NDBIAS)     .4289            (C_F_C33_NDBIAS)     .4289                

(C_F_C34_NDBIAS)     .4289            (C_F_C35_NDBIAS)     .4289                

(C_F_C36_NDBIAS)     .4289            (C_F_C37_NDBIAS)     .4289                

(C_F_C38_NDBIAS)     .4289            (C_F_C39_NDBIAS)     .4289                

(C_F_C40_NDBIAS)     .4289            (C_F_C41_NDBIAS)     .4289                

(C_F_C42_NDBIAS)     .4289            (C_F_C43_NDBIAS)     .4289                

(C_F_C44_NDBIAS)     .4289            (C_F_C45_NDBIAS)     .4289                

(C_F_C46_NDBIAS)     .4289            (C_F_C47_NDBIAS)     .4289                

(C_F_C48_NDBIAS)     .4289            (C_F_C49_NDBIAS)     .4289                

(C_F_C50_NDBIAS)     .4289            (C_F_C51_NDBIAS)     .4289                

(C_F_C52_NDBIAS)     .4289            (C_F_C53_NDBIAS)     .4289                

(C_F_C54_NDBIAS)     .4289            (C_F_C55_NDBIAS)     .4289                

(C_F_C56_NDBIAS)     .4289            (C_F_C57_NDBIAS)     .4289                

(C_F_C58_NDBIAS)     .4289            (C_F_C59_NDBIAS)     .4289                

(C_F_C60_NDBIAS)     .4289            (C_F_C61_NDBIAS)     .4289                

(C_F_C62_NDBIAS)     .4289            (C_F_C63_NDBIAS)     .4289                

(C_F_D_U100_ND2) 102.7E-09            (C_F_D_U100_ND3) 87.99E-09                

(C_F_D_U100_ND4) 73.33E-09            (C_F_D_U100_ND5) 58.66E-09                

(C_F_D_U100_ND6) 44.00E-09            (C_F_D_U100_ND7) 29.33E-09                

(C_F_D_U100_ND8) 14.67E-09            (C_F_D_U117_ND2) 1.039E-06                

(C_F_D_U118_ND2) 1.039E-06            (C_F_D_U119_ND2) 1.039E-06                

(C_F_D_U120_ND2) 1.039E-06            (C_F_D_U121_ND2) 1.039E-06                

(C_F_D_U122_ND2) 1.039E-06            (C_F_D_U123_ND2) 1.039E-06                

(C_F_D_U124_ND2) 1.039E-06            (C_F_D_U125_ND2) 1.039E-06                

(C_F_D_U126_ND2) 1.039E-06            (C_F_D_U127_ND2) 1.039E-06                

(C_F_D_U129_ND2) 1.039E-06            (C_F_D_U130_ND2) 1.039E-06                

(C_F_D_U131_ND2) 1.039E-06            (C_F_D_U132_ND2) 1.039E-06                

(C_F_D_U133_ND2) 1.039E-06            (C_F_D_U134_ND2) 102.7E-09                

(C_F_D_U134_ND3) 87.99E-09            (C_F_D_U134_ND4) 73.33E-09                

(C_F_D_U134_ND5) 58.66E-09            (C_F_D_U134_ND6) 44.00E-09                

(C_F_D_U134_ND7) 29.33E-09            (C_F_D_U134_ND8) 14.67E-09                

(C_F_D_U135_ND2) 102.7E-09            (C_F_D_U135_ND3) 87.99E-09                

(C_F_D_U135_ND4) 73.33E-09            (C_F_D_U135_ND5) 58.66E-09                

(C_F_D_U135_ND6) 44.00E-09            (C_F_D_U135_ND7) 29.33E-09                

(C_F_D_U135_ND8) 14.67E-09            (C_F_D_U140_ND2) 150.7E-09                

(C_F_D_U140_ND3) 100.5E-09            (C_F_D_U140_ND4) 50.24E-09                

(C_1R_DIV_N02264)    1.1016           (C_1R_DIV_N03019)    1.5283               

(C_1R_DIV_N03082)    1.4165           (C_1R_DIV_N03146)    1.3048               

(C_1R_DIV_N03539)    1.1930           (C_1R_DIV_N17274)    1.0102               

(C_2R_DIV_N02264)    1.1016           (C_2R_DIV_N03019)    1.5283               

(C_2R_DIV_N03082)    1.4165           (C_2R_DIV_N03146)    1.3048               

(C_2R_DIV_N03539)    1.1930           (C_2R_DIV_N17274)    1.0102               

(C_1R_DIV_N169051)    1.0000          (C_2R_DIV_N169051)    1.0000              

(C_F_R1_NAND1_ND2)    2.7854          (C_F_R1_NAND1_ND3) 438.5E-09              

(C_F_R1_NAND2_ND2) 302.1E-09          (C_F_R1_NAND3_ND2)     .0560              

(C_F_R1_NAND4_ND2)     .0973          (C_F_R1_NAND5_ND2) 145.5E-06              

(C_F_R1_NAND6_ND2)    2.7916          (C_F_R2_NAND1_ND2)    2.8444              

(C_F_R2_NAND1_ND3)     .0680          (C_F_R2_NAND2_ND2) 1.057E-06              

(C_F_R2_NAND3_ND2)    2.7916          (C_F_R2_NAND4_ND2)     .0973              

(C_F_R2_NAND5_ND2) 145.5E-06          (C_F_R2_NAND6_ND2) 302.1E-09              

(C_F_R3_NAND1_ND2)    2.8444          (C_F_R3_NAND1_ND3)     .0680              

(C_F_R3_NAND2_ND2) 1.057E-06          (C_F_R3_NAND3_ND2)    2.7916              

(C_F_R3_NAND4_ND2)     .0973          (C_F_R3_NAND5_ND2) 145.5E-06              

(C_F_R3_NAND6_ND2) 302.1E-09          (C_F_R4_NAND1_ND2)    2.8444              

(C_F_R4_NAND1_ND3)     .0680          (C_F_R4_NAND2_ND2) 1.057E-06              

(C_F_R4_NAND3_ND2)    2.7916          (C_F_R4_NAND4_ND2)     .0973              

(C_F_R4_NAND5_ND2) 145.5E-06          (C_F_R4_NAND6_ND2) 302.1E-09              

(C_F_R5_NAND1_ND2)    2.8444          (C_F_R5_NAND1_ND3)     .0680              

(C_F_R5_NAND2_ND2) 1.057E-06          (C_F_R5_NAND3_ND2)    2.7916              

(C_F_R5_NAND4_ND2)     .0973          (C_F_R5_NAND5_ND2) 145.5E-06              

(C_F_R5_NAND6_ND2) 302.1E-09          (C_F_R6_NAND1_ND2)    2.8444              

(C_F_R6_NAND1_ND3)     .0680          (C_F_R6_NAND2_ND2) 1.057E-06              

(C_F_R6_NAND3_ND2)    2.7916          (C_F_R6_NAND4_ND2)     .0973              

(C_F_R6_NAND5_ND2) 145.5E-06          (C_F_R6_NAND6_ND2) 1.173E-06          




    VOLTAGE SOURCE CURRENTS
    NAME         CURRENT

    V_Clock      0.000E+00
    V_C_1R_DIV_V1   1.016E-06
    V_C_2R_DIV_V1   1.016E-06
    V_VBIAS      0.000E+00
    V_VDD       -6.294E-02
    V_VREF      -2.032E-06
    V_VA         0.000E+00

    TOTAL POWER DISSIPATION   2.08E-01  WATTS



          JOB CONCLUDED

**** 06/04/10 20:57:28 ******* PSpice 16.0.0 (July 2006) ****** ID# 0 ********

 ** Profile: "PRUEBA-transient"  [ D:\Documents\TESIS\fiocs\Design\I-FLASH-01\OrCAD\I-FLASH-6BITS\i-flash-6bits-pspicefiles\prueba\tr


 ****     JOB STATISTICS SUMMARY


******************************************************************************



  Total job time (using Solver 1)   =       18.16
