
**** 05/16/10 12:28:36 ******* PSpice 16.0.0 (July 2006) ****** ID# 0 ********

 ** Profile: "PRUEBA-transient"  [ D:\Documents\TESIS\fiocs\Design\I-FLASH-01\OrCAD\I-FLASH-6BITS\i-flash-6bits-pspicefiles\prueba\tr


 ****     CIRCUIT DESCRIPTION


******************************************************************************




** Creating circuit file "transient.cir" 
** WARNING: THIS AUTOMATICALLY GENERATED FILE MAY BE OVERWRITTEN BY SUBSEQUENT SIMULATIONS

*Libraries: 
* Profile Libraries :
* Local Libraries :
.LIB "../../../i-flash-6bits-pspicefiles/i-flash-6bits.lib" 
* From [PSPICE NETLIST] section of C:\OrCAD\OrCAD_16.0\tools\PSpice\PSpice.ini file:
.lib "nom.lib" 

*Analysis directives: 
.TRAN  0 15n 0 10p 
.OPTIONS NODE
.OPTIONS ITL1= 300
.OPTIONS ITL2= 100
.PROBE V(alias(*)) I(alias(*)) W(alias(*)) D(alias(*)) NOISE(alias(*)) 
.INC "..\PRUEBA.net" 



**** INCLUDING PRUEBA.net ****
* source I-FLASH-6BITS
R_R6         LSB N116990  100k  
R_R7         N_MSB N116990  100k  
V_Clock         N116976 0  
+PULSE 0 3 .4u 0.05u 0.05u .4u 1u
R_R8         N_5SB N116990  100k  
M_C_F_C38_M6         C_F_C38_NDNEG N117007 C_F_C38_NDBIAS 0 CMOSN  
+ L=20u  
+ W=89u         
M_C_F_C38_M7         C_F_C38_NDPOS C_N117508 C_F_C38_NDBIAS 0 CMOSN  
+ L=20u  
+ W=89u         
M_C_F_C38_M8         C_F_C38_NDNEG C_F_C38_NDNEG N116990 N116990 CMOSP  
+ L=25u  
+ W=37u         
M_C_F_C38_M14         Q38 C_F_C38_NDPOS N116990 N116990 CMOSP  
+ L=15u  
+ W=1097u         
M_C_F_C38_M9         C_F_C38_NDPOS C_F_C38_NDNEG N116990 N116990 CMOSP  
+ L=25u  
+ W=37u         
M_C_F_C38_M15         Q38 N117027 0 0 CMOSN  
+ L=15u  
+ W=375u         
M_C_F_C38_M10         C_F_C38_NDBIAS N117027 0 0 CMOSN  
+ L=20u  
+ W=20u         
M_C_F_C5_M6         C_F_C5_NDNEG N117007 C_F_C5_NDBIAS 0 CMOSN  
+ L=20u  
+ W=89u         
M_C_F_C5_M7         C_F_C5_NDPOS C_N117574 C_F_C5_NDBIAS 0 CMOSN  
+ L=20u  
+ W=89u         
M_C_F_C5_M8         C_F_C5_NDNEG C_F_C5_NDNEG N116990 N116990 CMOSP  
+ L=25u  
+ W=37u         
M_C_F_C5_M14         Q5 C_F_C5_NDPOS N116990 N116990 CMOSP  
+ L=15u  
+ W=1097u         
M_C_F_C5_M9         C_F_C5_NDPOS C_F_C5_NDNEG N116990 N116990 CMOSP  
+ L=25u  
+ W=37u         
M_C_F_C5_M15         Q5 N117027 0 0 CMOSN  
+ L=15u  
+ W=375u         
M_C_F_C5_M10         C_F_C5_NDBIAS N117027 0 0 CMOSN  
+ L=20u  
+ W=20u         
M_C_F_C25_M6         C_F_C25_NDNEG N117007 C_F_C25_NDBIAS 0 CMOSN  
+ L=20u  
+ W=89u         
M_C_F_C25_M7         C_F_C25_NDPOS C_N117534 C_F_C25_NDBIAS 0 CMOSN  
+ L=20u  
+ W=89u         
M_C_F_C25_M8         C_F_C25_NDNEG C_F_C25_NDNEG N116990 N116990 CMOSP  
+ L=25u  
+ W=37u         
M_C_F_C25_M14         Q25 C_F_C25_NDPOS N116990 N116990 CMOSP  
+ L=15u  
+ W=1097u         
M_C_F_C25_M9         C_F_C25_NDPOS C_F_C25_NDNEG N116990 N116990 CMOSP  
+ L=25u  
+ W=37u         
M_C_F_C25_M15         Q25 N117027 0 0 CMOSN  
+ L=15u  
+ W=375u         
M_C_F_C25_M10         C_F_C25_NDBIAS N117027 0 0 CMOSN  
+ L=20u  
+ W=20u         
M_C_F_C31_M6         C_F_C31_NDNEG N117007 C_F_C31_NDBIAS 0 CMOSN  
+ L=20u  
+ W=89u         
M_C_F_C31_M7         C_F_C31_NDPOS C_N117522 C_F_C31_NDBIAS 0 CMOSN  
+ L=20u  
+ W=89u         
M_C_F_C31_M8         C_F_C31_NDNEG C_F_C31_NDNEG N116990 N116990 CMOSP  
+ L=25u  
+ W=37u         
M_C_F_C31_M14         Q31 C_F_C31_NDPOS N116990 N116990 CMOSP  
+ L=15u  
+ W=1097u         
M_C_F_C31_M9         C_F_C31_NDPOS C_F_C31_NDNEG N116990 N116990 CMOSP  
+ L=25u  
+ W=37u         
M_C_F_C31_M15         Q31 N117027 0 0 CMOSN  
+ L=15u  
+ W=375u         
M_C_F_C31_M10         C_F_C31_NDBIAS N117027 0 0 CMOSN  
+ L=20u  
+ W=20u         
M_C_F_C8_M6         C_F_C8_NDNEG N117007 C_F_C8_NDBIAS 0 CMOSN  
+ L=20u  
+ W=89u         
M_C_F_C8_M7         C_F_C8_NDPOS C_N117576 C_F_C8_NDBIAS 0 CMOSN  
+ L=20u  
+ W=89u         
M_C_F_C8_M8         C_F_C8_NDNEG C_F_C8_NDNEG N116990 N116990 CMOSP  
+ L=25u  
+ W=37u         
M_C_F_C8_M14         Q8 C_F_C8_NDPOS N116990 N116990 CMOSP  
+ L=15u  
+ W=1097u         
M_C_F_C8_M9         C_F_C8_NDPOS C_F_C8_NDNEG N116990 N116990 CMOSP  
+ L=25u  
+ W=37u         
M_C_F_C8_M15         Q8 N117027 0 0 CMOSN  
+ L=15u  
+ W=375u         
M_C_F_C8_M10         C_F_C8_NDBIAS N117027 0 0 CMOSN  
+ L=20u  
+ W=20u         
M_C_F_C19_M6         C_F_C19_NDNEG N117007 C_F_C19_NDBIAS 0 CMOSN  
+ L=20u  
+ W=89u         
M_C_F_C19_M7         C_F_C19_NDPOS C_N117546 C_F_C19_NDBIAS 0 CMOSN  
+ L=20u  
+ W=89u         
M_C_F_C19_M8         C_F_C19_NDNEG C_F_C19_NDNEG N116990 N116990 CMOSP  
+ L=25u  
+ W=37u         
M_C_F_C19_M14         Q19 C_F_C19_NDPOS N116990 N116990 CMOSP  
+ L=15u  
+ W=1097u         
M_C_F_C19_M9         C_F_C19_NDPOS C_F_C19_NDNEG N116990 N116990 CMOSP  
+ L=25u  
+ W=37u         
M_C_F_C19_M15         Q19 N117027 0 0 CMOSN  
+ L=15u  
+ W=375u         
M_C_F_C19_M10         C_F_C19_NDBIAS N117027 0 0 CMOSN  
+ L=20u  
+ W=20u         
M_C_F_C2_M6         C_F_C2_NDNEG N117007 C_F_C2_NDBIAS 0 CMOSN  
+ L=20u  
+ W=89u         
M_C_F_C2_M7         C_F_C2_NDPOS C_N117564 C_F_C2_NDBIAS 0 CMOSN  
+ L=20u  
+ W=89u         
M_C_F_C2_M8         C_F_C2_NDNEG C_F_C2_NDNEG N116990 N116990 CMOSP  
+ L=25u  
+ W=37u         
M_C_F_C2_M14         Q2 C_F_C2_NDPOS N116990 N116990 CMOSP  
+ L=15u  
+ W=1097u         
M_C_F_C2_M9         C_F_C2_NDPOS C_F_C2_NDNEG N116990 N116990 CMOSP  
+ L=25u  
+ W=37u         
M_C_F_C2_M15         Q2 N117027 0 0 CMOSN  
+ L=15u  
+ W=375u         
M_C_F_C2_M10         C_F_C2_NDBIAS N117027 0 0 CMOSN  
+ L=20u  
+ W=20u         
M_C_F_C46_M6         C_F_C46_NDNEG N117007 C_F_C46_NDBIAS 0 CMOSN  
+ L=20u  
+ W=89u         
M_C_F_C46_M7         C_F_C46_NDPOS C_N117494 C_F_C46_NDBIAS 0 CMOSN  
+ L=20u  
+ W=89u         
M_C_F_C46_M8         C_F_C46_NDNEG C_F_C46_NDNEG N116990 N116990 CMOSP  
+ L=25u  
+ W=37u         
M_C_F_C46_M14         Q46 C_F_C46_NDPOS N116990 N116990 CMOSP  
+ L=15u  
+ W=1097u         
M_C_F_C46_M9         C_F_C46_NDPOS C_F_C46_NDNEG N116990 N116990 CMOSP  
+ L=25u  
+ W=37u         
M_C_F_C46_M15         Q46 N117027 0 0 CMOSN  
+ L=15u  
+ W=375u         
M_C_F_C46_M10         C_F_C46_NDBIAS N117027 0 0 CMOSN  
+ L=20u  
+ W=20u         
M_C_F_C47_M6         C_F_C47_NDNEG N117007 C_F_C47_NDBIAS 0 CMOSN  
+ L=20u  
+ W=89u         
M_C_F_C47_M7         C_F_C47_NDPOS C_N117496 C_F_C47_NDBIAS 0 CMOSN  
+ L=20u  
+ W=89u         
M_C_F_C47_M8         C_F_C47_NDNEG C_F_C47_NDNEG N116990 N116990 CMOSP  
+ L=25u  
+ W=37u         
M_C_F_C47_M14         Q47 C_F_C47_NDPOS N116990 N116990 CMOSP  
+ L=15u  
+ W=1097u         
M_C_F_C47_M9         C_F_C47_NDPOS C_F_C47_NDNEG N116990 N116990 CMOSP  
+ L=25u  
+ W=37u         
M_C_F_C47_M15         Q47 N117027 0 0 CMOSN  
+ L=15u  
+ W=375u         
M_C_F_C47_M10         C_F_C47_NDBIAS N117027 0 0 CMOSN  
+ L=20u  
+ W=20u         
M_C_F_C60_M6         C_F_C60_NDNEG N117007 C_F_C60_NDBIAS 0 CMOSN  
+ L=20u  
+ W=89u         
M_C_F_C60_M7         C_F_C60_NDPOS C_N119887 C_F_C60_NDBIAS 0 CMOSN  
+ L=20u  
+ W=89u         
M_C_F_C60_M8         C_F_C60_NDNEG C_F_C60_NDNEG N116990 N116990 CMOSP  
+ L=25u  
+ W=37u         
M_C_F_C60_M14         Q60 C_F_C60_NDPOS N116990 N116990 CMOSP  
+ L=15u  
+ W=1097u         
M_C_F_C60_M9         C_F_C60_NDPOS C_F_C60_NDNEG N116990 N116990 CMOSP  
+ L=25u  
+ W=37u         
M_C_F_C60_M15         Q60 N117027 0 0 CMOSN  
+ L=15u  
+ W=375u         
M_C_F_C60_M10         C_F_C60_NDBIAS N117027 0 0 CMOSN  
+ L=20u  
+ W=20u         
M_C_F_C45_M6         C_F_C45_NDNEG N117007 C_F_C45_NDBIAS 0 CMOSN  
+ L=20u  
+ W=89u         
M_C_F_C45_M7         C_F_C45_NDPOS C_N117492 C_F_C45_NDBIAS 0 CMOSN  
+ L=20u  
+ W=89u         
M_C_F_C45_M8         C_F_C45_NDNEG C_F_C45_NDNEG N116990 N116990 CMOSP  
+ L=25u  
+ W=37u         
M_C_F_C45_M14         Q45 C_F_C45_NDPOS N116990 N116990 CMOSP  
+ L=15u  
+ W=1097u         
M_C_F_C45_M9         C_F_C45_NDPOS C_F_C45_NDNEG N116990 N116990 CMOSP  
+ L=25u  
+ W=37u         
M_C_F_C45_M15         Q45 N117027 0 0 CMOSN  
+ L=15u  
+ W=375u         
M_C_F_C45_M10         C_F_C45_NDBIAS N117027 0 0 CMOSN  
+ L=20u  
+ W=20u         
M_C_F_C54_M6         C_F_C54_NDNEG N117007 C_F_C54_NDBIAS 0 CMOSN  
+ L=20u  
+ W=89u         
M_C_F_C54_M7         C_F_C54_NDPOS C_N119899 C_F_C54_NDBIAS 0 CMOSN  
+ L=20u  
+ W=89u         
M_C_F_C54_M8         C_F_C54_NDNEG C_F_C54_NDNEG N116990 N116990 CMOSP  
+ L=25u  
+ W=37u         
M_C_F_C54_M14         Q54 C_F_C54_NDPOS N116990 N116990 CMOSP  
+ L=15u  
+ W=1097u         
M_C_F_C54_M9         C_F_C54_NDPOS C_F_C54_NDNEG N116990 N116990 CMOSP  
+ L=25u  
+ W=37u         
M_C_F_C54_M15         Q54 N117027 0 0 CMOSN  
+ L=15u  
+ W=375u         
M_C_F_C54_M10         C_F_C54_NDBIAS N117027 0 0 CMOSN  
+ L=20u  
+ W=20u         
M_C_F_C34_M6         C_F_C34_NDNEG N117007 C_F_C34_NDBIAS 0 CMOSN  
+ L=20u  
+ W=89u         
M_C_F_C34_M7         C_F_C34_NDPOS C_N117516 C_F_C34_NDBIAS 0 CMOSN  
+ L=20u  
+ W=89u         
M_C_F_C34_M8         C_F_C34_NDNEG C_F_C34_NDNEG N116990 N116990 CMOSP  
+ L=25u  
+ W=37u         
M_C_F_C34_M14         Q34 C_F_C34_NDPOS N116990 N116990 CMOSP  
+ L=15u  
+ W=1097u         
M_C_F_C34_M9         C_F_C34_NDPOS C_F_C34_NDNEG N116990 N116990 CMOSP  
+ L=25u  
+ W=37u         
M_C_F_C34_M15         Q34 N117027 0 0 CMOSN  
+ L=15u  
+ W=375u         
M_C_F_C34_M10         C_F_C34_NDBIAS N117027 0 0 CMOSN  
+ L=20u  
+ W=20u         
M_C_F_C26_M6         C_F_C26_NDNEG N117007 C_F_C26_NDBIAS 0 CMOSN  
+ L=20u  
+ W=89u         
M_C_F_C26_M7         C_F_C26_NDPOS C_N117536 C_F_C26_NDBIAS 0 CMOSN  
+ L=20u  
+ W=89u         
M_C_F_C26_M8         C_F_C26_NDNEG C_F_C26_NDNEG N116990 N116990 CMOSP  
+ L=25u  
+ W=37u         
M_C_F_C26_M14         Q26 C_F_C26_NDPOS N116990 N116990 CMOSP  
+ L=15u  
+ W=1097u         
M_C_F_C26_M9         C_F_C26_NDPOS C_F_C26_NDNEG N116990 N116990 CMOSP  
+ L=25u  
+ W=37u         
M_C_F_C26_M15         Q26 N117027 0 0 CMOSN  
+ L=15u  
+ W=375u         
M_C_F_C26_M10         C_F_C26_NDBIAS N117027 0 0 CMOSN  
+ L=20u  
+ W=20u         
M_C_F_C48_M6         C_F_C48_NDNEG N117007 C_F_C48_NDBIAS 0 CMOSN  
+ L=20u  
+ W=89u         
M_C_F_C48_M7         C_F_C48_NDPOS C_N117498 C_F_C48_NDBIAS 0 CMOSN  
+ L=20u  
+ W=89u         
M_C_F_C48_M8         C_F_C48_NDNEG C_F_C48_NDNEG N116990 N116990 CMOSP  
+ L=25u  
+ W=37u         
M_C_F_C48_M14         Q48 C_F_C48_NDPOS N116990 N116990 CMOSP  
+ L=15u  
+ W=1097u         
M_C_F_C48_M9         C_F_C48_NDPOS C_F_C48_NDNEG N116990 N116990 CMOSP  
+ L=25u  
+ W=37u         
M_C_F_C48_M15         Q48 N117027 0 0 CMOSN  
+ L=15u  
+ W=375u         
M_C_F_C48_M10         C_F_C48_NDBIAS N117027 0 0 CMOSN  
+ L=20u  
+ W=20u         
M_C_F_C44_M6         C_F_C44_NDNEG N117007 C_F_C44_NDBIAS 0 CMOSN  
+ L=20u  
+ W=89u         
M_C_F_C44_M7         C_F_C44_NDPOS C_N117490 C_F_C44_NDBIAS 0 CMOSN  
+ L=20u  
+ W=89u         
M_C_F_C44_M8         C_F_C44_NDNEG C_F_C44_NDNEG N116990 N116990 CMOSP  
+ L=25u  
+ W=37u         
M_C_F_C44_M14         Q44 C_F_C44_NDPOS N116990 N116990 CMOSP  
+ L=15u  
+ W=1097u         
M_C_F_C44_M9         C_F_C44_NDPOS C_F_C44_NDNEG N116990 N116990 CMOSP  
+ L=25u  
+ W=37u         
M_C_F_C44_M15         Q44 N117027 0 0 CMOSN  
+ L=15u  
+ W=375u         
M_C_F_C44_M10         C_F_C44_NDBIAS N117027 0 0 CMOSN  
+ L=20u  
+ W=20u         
M_C_F_C7_M6         C_F_C7_NDNEG N117007 C_F_C7_NDBIAS 0 CMOSN  
+ L=20u  
+ W=89u         
M_C_F_C7_M7         C_F_C7_NDPOS C_N117570 C_F_C7_NDBIAS 0 CMOSN  
+ L=20u  
+ W=89u         
M_C_F_C7_M8         C_F_C7_NDNEG C_F_C7_NDNEG N116990 N116990 CMOSP  
+ L=25u  
+ W=37u         
M_C_F_C7_M14         Q7 C_F_C7_NDPOS N116990 N116990 CMOSP  
+ L=15u  
+ W=1097u         
M_C_F_C7_M9         C_F_C7_NDPOS C_F_C7_NDNEG N116990 N116990 CMOSP  
+ L=25u  
+ W=37u         
M_C_F_C7_M15         Q7 N117027 0 0 CMOSN  
+ L=15u  
+ W=375u         
M_C_F_C7_M10         C_F_C7_NDBIAS N117027 0 0 CMOSN  
+ L=20u  
+ W=20u         
M_C_F_C18_M6         C_F_C18_NDNEG N117007 C_F_C18_NDBIAS 0 CMOSN  
+ L=20u  
+ W=89u         
M_C_F_C18_M7         C_F_C18_NDPOS C_N117548 C_F_C18_NDBIAS 0 CMOSN  
+ L=20u  
+ W=89u         
M_C_F_C18_M8         C_F_C18_NDNEG C_F_C18_NDNEG N116990 N116990 CMOSP  
+ L=25u  
+ W=37u         
M_C_F_C18_M14         Q18 C_F_C18_NDPOS N116990 N116990 CMOSP  
+ L=15u  
+ W=1097u         
M_C_F_C18_M9         C_F_C18_NDPOS C_F_C18_NDNEG N116990 N116990 CMOSP  
+ L=25u  
+ W=37u         
M_C_F_C18_M15         Q18 N117027 0 0 CMOSN  
+ L=15u  
+ W=375u         
M_C_F_C18_M10         C_F_C18_NDBIAS N117027 0 0 CMOSN  
+ L=20u  
+ W=20u         
M_C_F_R6_NAND6_M5         C_F_R6_N62152 C_F_R6_Y N116990 N116990 CMOSP  
+ L=.186u  
+ W=.25u         
M_C_F_R6_NAND6_M6         C_F_R6_N62152 C_F_R6_Y C_F_R6_NAND6_ND2 0 CMOSN  
+ L=.2u  
+ W=.232u         
M_C_F_R6_NAND6_M2         C_F_R6_NAND6_ND2 C_F_D_MSB 0 0 CMOSN  
+ L=.2u  
+ W=.232u         
M_C_F_R6_NAND6_M4         C_F_R6_N62152 C_F_D_MSB N116990 N116990 CMOSP  
+ L=.186u  
+ W=.25u         
M_C_F_R6_NAND1_M2         C_F_R6_NAND1_ND2 N116976 C_F_R6_NAND1_ND3 0 CMOSN  
+ L=.18u  
+ W=.37u         
M_C_F_R6_NAND1_M3         C_F_R6_Y C_F_R6_X N116990 N116990 CMOSP  
+ L=.25u  
+ W=.26u         
M_C_F_R6_NAND1_M6         C_F_R6_NAND1_ND3 C_F_R6_N62152 0 0 CMOSN  
+ L=.18u  
+ W=.37u         
M_C_F_R6_NAND1_M4         C_F_R6_Y N116976 N116990 N116990 CMOSP  
+ L=.25u  
+ W=.26u         
M_C_F_R6_NAND1_M1         C_F_R6_Y C_F_R6_X C_F_R6_NAND1_ND2 0 CMOSN  
+ L=.18u  
+ W=.37u         
M_C_F_R6_NAND1_M5         C_F_R6_Y C_F_R6_N62152 N116990 N116990 CMOSP  
+ L=.25u  
+ W=.26u         
M_C_F_R6_NAND2_M5         C_F_R6_N62128 C_F_R6_N62152 N116990 N116990 CMOSP  
+ L=.186u  
+ W=.25u         
M_C_F_R6_NAND2_M6         C_F_R6_N62128 C_F_R6_N62152 C_F_R6_NAND2_ND2 0 CMOSN 
+  
+ L=.2u  
+ W=.232u         
M_C_F_R6_NAND2_M2         C_F_R6_NAND2_ND2 C_F_R6_X 0 0 CMOSN  
+ L=.2u  
+ W=.232u         
M_C_F_R6_NAND2_M4         C_F_R6_N62128 C_F_R6_X N116990 N116990 CMOSP  
+ L=.186u  
+ W=.25u         
M_C_F_R6_NAND3_M5         C_F_R6_X C_F_R6_N62128 N116990 N116990 CMOSP  
+ L=.186u  
+ W=.25u         
M_C_F_R6_NAND3_M6         C_F_R6_X C_F_R6_N62128 C_F_R6_NAND3_ND2 0 CMOSN  
+ L=.2u  
+ W=.232u         
M_C_F_R6_NAND3_M2         C_F_R6_NAND3_ND2 N116976 0 0 CMOSN  
+ L=.2u  
+ W=.232u         
M_C_F_R6_NAND3_M4         C_F_R6_X N116976 N116990 N116990 CMOSP  
+ L=.186u  
+ W=.25u         
M_C_F_R6_NAND4_M5         MSB C_F_R6_X N116990 N116990 CMOSP  
+ L=.186u  
+ W=.25u         
M_C_F_R6_NAND4_M6         MSB C_F_R6_X C_F_R6_NAND4_ND2 0 CMOSN  
+ L=.2u  
+ W=.232u         
M_C_F_R6_NAND4_M2         C_F_R6_NAND4_ND2 N_MSB 0 0 CMOSN  
+ L=.2u  
+ W=.232u         
M_C_F_R6_NAND4_M4         MSB N_MSB N116990 N116990 CMOSP  
+ L=.186u  
+ W=.25u         
M_C_F_R6_NAND5_M5         N_MSB MSB N116990 N116990 CMOSP  
+ L=.186u  
+ W=.25u         
M_C_F_R6_NAND5_M6         N_MSB MSB C_F_R6_NAND5_ND2 0 CMOSN  
+ L=.2u  
+ W=.232u         
M_C_F_R6_NAND5_M2         C_F_R6_NAND5_ND2 C_F_R6_Y 0 0 CMOSN  
+ L=.2u  
+ W=.232u         
M_C_F_R6_NAND5_M4         N_MSB C_F_R6_Y N116990 N116990 CMOSP  
+ L=.186u  
+ W=.25u         
M_C_F_C4_M6         C_F_C4_NDNEG N117007 C_F_C4_NDBIAS 0 CMOSN  
+ L=20u  
+ W=89u         
M_C_F_C4_M7         C_F_C4_NDPOS C_N117566 C_F_C4_NDBIAS 0 CMOSN  
+ L=20u  
+ W=89u         
M_C_F_C4_M8         C_F_C4_NDNEG C_F_C4_NDNEG N116990 N116990 CMOSP  
+ L=25u  
+ W=37u         
M_C_F_C4_M14         Q4 C_F_C4_NDPOS N116990 N116990 CMOSP  
+ L=15u  
+ W=1097u         
M_C_F_C4_M9         C_F_C4_NDPOS C_F_C4_NDNEG N116990 N116990 CMOSP  
+ L=25u  
+ W=37u         
M_C_F_C4_M15         Q4 N117027 0 0 CMOSN  
+ L=15u  
+ W=375u         
M_C_F_C4_M10         C_F_C4_NDBIAS N117027 0 0 CMOSN  
+ L=20u  
+ W=20u         
M_C_F_C49_M6         C_F_C49_NDNEG N117007 C_F_C49_NDBIAS 0 CMOSN  
+ L=20u  
+ W=89u         
M_C_F_C49_M7         C_F_C49_NDPOS C_N117500 C_F_C49_NDBIAS 0 CMOSN  
+ L=20u  
+ W=89u         
M_C_F_C49_M8         C_F_C49_NDNEG C_F_C49_NDNEG N116990 N116990 CMOSP  
+ L=25u  
+ W=37u         
M_C_F_C49_M14         Q49 C_F_C49_NDPOS N116990 N116990 CMOSP  
+ L=15u  
+ W=1097u         
M_C_F_C49_M9         C_F_C49_NDPOS C_F_C49_NDNEG N116990 N116990 CMOSP  
+ L=25u  
+ W=37u         
M_C_F_C49_M15         Q49 N117027 0 0 CMOSN  
+ L=15u  
+ W=375u         
M_C_F_C49_M10         C_F_C49_NDBIAS N117027 0 0 CMOSN  
+ L=20u  
+ W=20u         
M_C_F_C37_M6         C_F_C37_NDNEG N117007 C_F_C37_NDBIAS 0 CMOSN  
+ L=20u  
+ W=89u         
M_C_F_C37_M7         C_F_C37_NDPOS C_N117510 C_F_C37_NDBIAS 0 CMOSN  
+ L=20u  
+ W=89u         
M_C_F_C37_M8         C_F_C37_NDNEG C_F_C37_NDNEG N116990 N116990 CMOSP  
+ L=25u  
+ W=37u         
M_C_F_C37_M14         Q37 C_F_C37_NDPOS N116990 N116990 CMOSP  
+ L=15u  
+ W=1097u         
M_C_F_C37_M9         C_F_C37_NDPOS C_F_C37_NDNEG N116990 N116990 CMOSP  
+ L=25u  
+ W=37u         
M_C_F_C37_M15         Q37 N117027 0 0 CMOSN  
+ L=15u  
+ W=375u         
M_C_F_C37_M10         C_F_C37_NDBIAS N117027 0 0 CMOSN  
+ L=20u  
+ W=20u         
M_C_F_C43_M6         C_F_C43_NDNEG N117007 C_F_C43_NDBIAS 0 CMOSN  
+ L=20u  
+ W=89u         
M_C_F_C43_M7         C_F_C43_NDPOS C_N117488 C_F_C43_NDBIAS 0 CMOSN  
+ L=20u  
+ W=89u         
M_C_F_C43_M8         C_F_C43_NDNEG C_F_C43_NDNEG N116990 N116990 CMOSP  
+ L=25u  
+ W=37u         
M_C_F_C43_M14         Q43 C_F_C43_NDPOS N116990 N116990 CMOSP  
+ L=15u  
+ W=1097u         
M_C_F_C43_M9         C_F_C43_NDPOS C_F_C43_NDNEG N116990 N116990 CMOSP  
+ L=25u  
+ W=37u         
M_C_F_C43_M15         Q43 N117027 0 0 CMOSN  
+ L=15u  
+ W=375u         
M_C_F_C43_M10         C_F_C43_NDBIAS N117027 0 0 CMOSN  
+ L=20u  
+ W=20u         
M_C_F_C27_M6         C_F_C27_NDNEG N117007 C_F_C27_NDBIAS 0 CMOSN  
+ L=20u  
+ W=89u         
M_C_F_C27_M7         C_F_C27_NDPOS C_N117538 C_F_C27_NDBIAS 0 CMOSN  
+ L=20u  
+ W=89u         
M_C_F_C27_M8         C_F_C27_NDNEG C_F_C27_NDNEG N116990 N116990 CMOSP  
+ L=25u  
+ W=37u         
M_C_F_C27_M14         Q27 C_F_C27_NDPOS N116990 N116990 CMOSP  
+ L=15u  
+ W=1097u         
M_C_F_C27_M9         C_F_C27_NDPOS C_F_C27_NDNEG N116990 N116990 CMOSP  
+ L=25u  
+ W=37u         
M_C_F_C27_M15         Q27 N117027 0 0 CMOSN  
+ L=15u  
+ W=375u         
M_C_F_C27_M10         C_F_C27_NDBIAS N117027 0 0 CMOSN  
+ L=20u  
+ W=20u         
M_C_F_R3_NAND6_M5         C_F_R3_N62152 C_F_R3_Y N116990 N116990 CMOSP  
+ L=.186u  
+ W=.25u         
M_C_F_R3_NAND6_M6         C_F_R3_N62152 C_F_R3_Y C_F_R3_NAND6_ND2 0 CMOSN  
+ L=.2u  
+ W=.232u         
M_C_F_R3_NAND6_M2         C_F_R3_NAND6_ND2 C_F_D_3SB 0 0 CMOSN  
+ L=.2u  
+ W=.232u         
M_C_F_R3_NAND6_M4         C_F_R3_N62152 C_F_D_3SB N116990 N116990 CMOSP  
+ L=.186u  
+ W=.25u         
M_C_F_R3_NAND1_M2         C_F_R3_NAND1_ND2 N116976 C_F_R3_NAND1_ND3 0 CMOSN  
+ L=.18u  
+ W=.37u         
M_C_F_R3_NAND1_M3         C_F_R3_Y C_F_R3_X N116990 N116990 CMOSP  
+ L=.25u  
+ W=.26u         
M_C_F_R3_NAND1_M6         C_F_R3_NAND1_ND3 C_F_R3_N62152 0 0 CMOSN  
+ L=.18u  
+ W=.37u         
M_C_F_R3_NAND1_M4         C_F_R3_Y N116976 N116990 N116990 CMOSP  
+ L=.25u  
+ W=.26u         
M_C_F_R3_NAND1_M1         C_F_R3_Y C_F_R3_X C_F_R3_NAND1_ND2 0 CMOSN  
+ L=.18u  
+ W=.37u         
M_C_F_R3_NAND1_M5         C_F_R3_Y C_F_R3_N62152 N116990 N116990 CMOSP  
+ L=.25u  
+ W=.26u         
M_C_F_R3_NAND2_M5         C_F_R3_N62128 C_F_R3_N62152 N116990 N116990 CMOSP  
+ L=.186u  
+ W=.25u         
M_C_F_R3_NAND2_M6         C_F_R3_N62128 C_F_R3_N62152 C_F_R3_NAND2_ND2 0 CMOSN 
+  
+ L=.2u  
+ W=.232u         
M_C_F_R3_NAND2_M2         C_F_R3_NAND2_ND2 C_F_R3_X 0 0 CMOSN  
+ L=.2u  
+ W=.232u         
M_C_F_R3_NAND2_M4         C_F_R3_N62128 C_F_R3_X N116990 N116990 CMOSP  
+ L=.186u  
+ W=.25u         
M_C_F_R3_NAND3_M5         C_F_R3_X C_F_R3_N62128 N116990 N116990 CMOSP  
+ L=.186u  
+ W=.25u         
M_C_F_R3_NAND3_M6         C_F_R3_X C_F_R3_N62128 C_F_R3_NAND3_ND2 0 CMOSN  
+ L=.2u  
+ W=.232u         
M_C_F_R3_NAND3_M2         C_F_R3_NAND3_ND2 N116976 0 0 CMOSN  
+ L=.2u  
+ W=.232u         
M_C_F_R3_NAND3_M4         C_F_R3_X N116976 N116990 N116990 CMOSP  
+ L=.186u  
+ W=.25u         
M_C_F_R3_NAND4_M5         3SB C_F_R3_X N116990 N116990 CMOSP  
+ L=.186u  
+ W=.25u         
M_C_F_R3_NAND4_M6         3SB C_F_R3_X C_F_R3_NAND4_ND2 0 CMOSN  
+ L=.2u  
+ W=.232u         
M_C_F_R3_NAND4_M2         C_F_R3_NAND4_ND2 N_3SB 0 0 CMOSN  
+ L=.2u  
+ W=.232u         
M_C_F_R3_NAND4_M4         3SB N_3SB N116990 N116990 CMOSP  
+ L=.186u  
+ W=.25u         
M_C_F_R3_NAND5_M5         N_3SB 3SB N116990 N116990 CMOSP  
+ L=.186u  
+ W=.25u         
M_C_F_R3_NAND5_M6         N_3SB 3SB C_F_R3_NAND5_ND2 0 CMOSN  
+ L=.2u  
+ W=.232u         
M_C_F_R3_NAND5_M2         C_F_R3_NAND5_ND2 C_F_R3_Y 0 0 CMOSN  
+ L=.2u  
+ W=.232u         
M_C_F_R3_NAND5_M4         N_3SB C_F_R3_Y N116990 N116990 CMOSP  
+ L=.186u  
+ W=.25u         
M_C_F_C32_M6         C_F_C32_NDNEG N117007 C_F_C32_NDBIAS 0 CMOSN  
+ L=20u  
+ W=89u         
M_C_F_C32_M7         C_F_C32_NDPOS C_N117520 C_F_C32_NDBIAS 0 CMOSN  
+ L=20u  
+ W=89u         
M_C_F_C32_M8         C_F_C32_NDNEG C_F_C32_NDNEG N116990 N116990 CMOSP  
+ L=25u  
+ W=37u         
M_C_F_C32_M14         C_F_D_MSB C_F_C32_NDPOS N116990 N116990 CMOSP  
+ L=15u  
+ W=1097u         
M_C_F_C32_M9         C_F_C32_NDPOS C_F_C32_NDNEG N116990 N116990 CMOSP  
+ L=25u  
+ W=37u         
M_C_F_C32_M15         C_F_D_MSB N117027 0 0 CMOSN  
+ L=15u  
+ W=375u         
M_C_F_C32_M10         C_F_C32_NDBIAS N117027 0 0 CMOSN  
+ L=20u  
+ W=20u         
M_C_F_C58_M6         C_F_C58_NDNEG N117007 C_F_C58_NDBIAS 0 CMOSN  
+ L=20u  
+ W=89u         
M_C_F_C58_M7         C_F_C58_NDPOS C_N119891 C_F_C58_NDBIAS 0 CMOSN  
+ L=20u  
+ W=89u         
M_C_F_C58_M8         C_F_C58_NDNEG C_F_C58_NDNEG N116990 N116990 CMOSP  
+ L=25u  
+ W=37u         
M_C_F_C58_M14         Q58 C_F_C58_NDPOS N116990 N116990 CMOSP  
+ L=15u  
+ W=1097u         
M_C_F_C58_M9         C_F_C58_NDPOS C_F_C58_NDNEG N116990 N116990 CMOSP  
+ L=25u  
+ W=37u         
M_C_F_C58_M15         Q58 N117027 0 0 CMOSN  
+ L=15u  
+ W=375u         
M_C_F_C58_M10         C_F_C58_NDBIAS N117027 0 0 CMOSN  
+ L=20u  
+ W=20u         
M_C_F_C17_M6         C_F_C17_NDNEG N117007 C_F_C17_NDBIAS 0 CMOSN  
+ L=20u  
+ W=89u         
M_C_F_C17_M7         C_F_C17_NDPOS C_N117550 C_F_C17_NDBIAS 0 CMOSN  
+ L=20u  
+ W=89u         
M_C_F_C17_M8         C_F_C17_NDNEG C_F_C17_NDNEG N116990 N116990 CMOSP  
+ L=25u  
+ W=37u         
M_C_F_C17_M14         Q17 C_F_C17_NDPOS N116990 N116990 CMOSP  
+ L=15u  
+ W=1097u         
M_C_F_C17_M9         C_F_C17_NDPOS C_F_C17_NDNEG N116990 N116990 CMOSP  
+ L=25u  
+ W=37u         
M_C_F_C17_M15         Q17 N117027 0 0 CMOSN  
+ L=15u  
+ W=375u         
M_C_F_C17_M10         C_F_C17_NDBIAS N117027 0 0 CMOSN  
+ L=20u  
+ W=20u         
M_C_F_C42_M6         C_F_C42_NDNEG N117007 C_F_C42_NDBIAS 0 CMOSN  
+ L=20u  
+ W=89u         
M_C_F_C42_M7         C_F_C42_NDPOS C_N117486 C_F_C42_NDBIAS 0 CMOSN  
+ L=20u  
+ W=89u         
M_C_F_C42_M8         C_F_C42_NDNEG C_F_C42_NDNEG N116990 N116990 CMOSP  
+ L=25u  
+ W=37u         
M_C_F_C42_M14         Q42 C_F_C42_NDPOS N116990 N116990 CMOSP  
+ L=15u  
+ W=1097u         
M_C_F_C42_M9         C_F_C42_NDPOS C_F_C42_NDNEG N116990 N116990 CMOSP  
+ L=25u  
+ W=37u         
M_C_F_C42_M15         Q42 N117027 0 0 CMOSN  
+ L=15u  
+ W=375u         
M_C_F_C42_M10         C_F_C42_NDBIAS N117027 0 0 CMOSN  
+ L=20u  
+ W=20u         
M_C_F_C50_M6         C_F_C50_NDNEG N117007 C_F_C50_NDBIAS 0 CMOSN  
+ L=20u  
+ W=89u         
M_C_F_C50_M7         C_F_C50_NDPOS C_N119903 C_F_C50_NDBIAS 0 CMOSN  
+ L=20u  
+ W=89u         
M_C_F_C50_M8         C_F_C50_NDNEG C_F_C50_NDNEG N116990 N116990 CMOSP  
+ L=25u  
+ W=37u         
M_C_F_C50_M14         Q50 C_F_C50_NDPOS N116990 N116990 CMOSP  
+ L=15u  
+ W=1097u         
M_C_F_C50_M9         C_F_C50_NDPOS C_F_C50_NDNEG N116990 N116990 CMOSP  
+ L=25u  
+ W=37u         
M_C_F_C50_M15         Q50 N117027 0 0 CMOSN  
+ L=15u  
+ W=375u         
M_C_F_C50_M10         C_F_C50_NDBIAS N117027 0 0 CMOSN  
+ L=20u  
+ W=20u         
M_C_F_C55_M6         C_F_C55_NDNEG N117007 C_F_C55_NDBIAS 0 CMOSN  
+ L=20u  
+ W=89u         
M_C_F_C55_M7         C_F_C55_NDPOS C_N119897 C_F_C55_NDBIAS 0 CMOSN  
+ L=20u  
+ W=89u         
M_C_F_C55_M8         C_F_C55_NDNEG C_F_C55_NDNEG N116990 N116990 CMOSP  
+ L=25u  
+ W=37u         
M_C_F_C55_M14         Q55 C_F_C55_NDPOS N116990 N116990 CMOSP  
+ L=15u  
+ W=1097u         
M_C_F_C55_M9         C_F_C55_NDPOS C_F_C55_NDNEG N116990 N116990 CMOSP  
+ L=25u  
+ W=37u         
M_C_F_C55_M15         Q55 N117027 0 0 CMOSN  
+ L=15u  
+ W=375u         
M_C_F_C55_M10         C_F_C55_NDBIAS N117027 0 0 CMOSN  
+ L=20u  
+ W=20u         
M_C_F_C3_M6         C_F_C3_NDNEG N117007 C_F_C3_NDBIAS 0 CMOSN  
+ L=20u  
+ W=89u         
M_C_F_C3_M7         C_F_C3_NDPOS C_N117568 C_F_C3_NDBIAS 0 CMOSN  
+ L=20u  
+ W=89u         
M_C_F_C3_M8         C_F_C3_NDNEG C_F_C3_NDNEG N116990 N116990 CMOSP  
+ L=25u  
+ W=37u         
M_C_F_C3_M14         Q3 C_F_C3_NDPOS N116990 N116990 CMOSP  
+ L=15u  
+ W=1097u         
M_C_F_C3_M9         C_F_C3_NDPOS C_F_C3_NDNEG N116990 N116990 CMOSP  
+ L=25u  
+ W=37u         
M_C_F_C3_M15         Q3 N117027 0 0 CMOSN  
+ L=15u  
+ W=375u         
M_C_F_C3_M10         C_F_C3_NDBIAS N117027 0 0 CMOSN  
+ L=20u  
+ W=20u         
M_C_F_C28_M6         C_F_C28_NDNEG N117007 C_F_C28_NDBIAS 0 CMOSN  
+ L=20u  
+ W=89u         
M_C_F_C28_M7         C_F_C28_NDPOS C_N117540 C_F_C28_NDBIAS 0 CMOSN  
+ L=20u  
+ W=89u         
M_C_F_C28_M8         C_F_C28_NDNEG C_F_C28_NDNEG N116990 N116990 CMOSP  
+ L=25u  
+ W=37u         
M_C_F_C28_M14         Q28 C_F_C28_NDPOS N116990 N116990 CMOSP  
+ L=15u  
+ W=1097u         
M_C_F_C28_M9         C_F_C28_NDPOS C_F_C28_NDNEG N116990 N116990 CMOSP  
+ L=25u  
+ W=37u         
M_C_F_C28_M15         Q28 N117027 0 0 CMOSN  
+ L=15u  
+ W=375u         
M_C_F_C28_M10         C_F_C28_NDBIAS N117027 0 0 CMOSN  
+ L=20u  
+ W=20u         
M_C_F_C63_M6         C_F_C63_NDNEG N117007 C_F_C63_NDBIAS 0 CMOSN  
+ L=20u  
+ W=89u         
M_C_F_C63_M7         C_F_C63_NDPOS C_N119881 C_F_C63_NDBIAS 0 CMOSN  
+ L=20u  
+ W=89u         
M_C_F_C63_M8         C_F_C63_NDNEG C_F_C63_NDNEG N116990 N116990 CMOSP  
+ L=25u  
+ W=37u         
M_C_F_C63_M14         Q63 C_F_C63_NDPOS N116990 N116990 CMOSP  
+ L=15u  
+ W=1097u         
M_C_F_C63_M9         C_F_C63_NDPOS C_F_C63_NDNEG N116990 N116990 CMOSP  
+ L=25u  
+ W=37u         
M_C_F_C63_M15         Q63 N117027 0 0 CMOSN  
+ L=15u  
+ W=375u         
M_C_F_C63_M10         C_F_C63_NDBIAS N117027 0 0 CMOSN  
+ L=20u  
+ W=20u         
M_C_F_C41_M6         C_F_C41_NDNEG N117007 C_F_C41_NDBIAS 0 CMOSN  
+ L=20u  
+ W=89u         
M_C_F_C41_M7         C_F_C41_NDPOS C_N117502 C_F_C41_NDBIAS 0 CMOSN  
+ L=20u  
+ W=89u         
M_C_F_C41_M8         C_F_C41_NDNEG C_F_C41_NDNEG N116990 N116990 CMOSP  
+ L=25u  
+ W=37u         
M_C_F_C41_M14         Q41 C_F_C41_NDPOS N116990 N116990 CMOSP  
+ L=15u  
+ W=1097u         
M_C_F_C41_M9         C_F_C41_NDPOS C_F_C41_NDNEG N116990 N116990 CMOSP  
+ L=25u  
+ W=37u         
M_C_F_C41_M15         Q41 N117027 0 0 CMOSN  
+ L=15u  
+ W=375u         
M_C_F_C41_M10         C_F_C41_NDBIAS N117027 0 0 CMOSN  
+ L=20u  
+ W=20u         
M_C_F_C33_M6         C_F_C33_NDNEG N117007 C_F_C33_NDBIAS 0 CMOSN  
+ L=20u  
+ W=89u         
M_C_F_C33_M7         C_F_C33_NDPOS C_N117518 C_F_C33_NDBIAS 0 CMOSN  
+ L=20u  
+ W=89u         
M_C_F_C33_M8         C_F_C33_NDNEG C_F_C33_NDNEG N116990 N116990 CMOSP  
+ L=25u  
+ W=37u         
M_C_F_C33_M14         Q33 C_F_C33_NDPOS N116990 N116990 CMOSP  
+ L=15u  
+ W=1097u         
M_C_F_C33_M9         C_F_C33_NDPOS C_F_C33_NDNEG N116990 N116990 CMOSP  
+ L=25u  
+ W=37u         
M_C_F_C33_M15         Q33 N117027 0 0 CMOSN  
+ L=15u  
+ W=375u         
M_C_F_C33_M10         C_F_C33_NDBIAS N117027 0 0 CMOSN  
+ L=20u  
+ W=20u         
M_C_F_C51_M6         C_F_C51_NDNEG N117007 C_F_C51_NDBIAS 0 CMOSN  
+ L=20u  
+ W=89u         
M_C_F_C51_M7         C_F_C51_NDPOS C_N119905 C_F_C51_NDBIAS 0 CMOSN  
+ L=20u  
+ W=89u         
M_C_F_C51_M8         C_F_C51_NDNEG C_F_C51_NDNEG N116990 N116990 CMOSP  
+ L=25u  
+ W=37u         
M_C_F_C51_M14         Q51 C_F_C51_NDPOS N116990 N116990 CMOSP  
+ L=15u  
+ W=1097u         
M_C_F_C51_M9         C_F_C51_NDPOS C_F_C51_NDNEG N116990 N116990 CMOSP  
+ L=25u  
+ W=37u         
M_C_F_C51_M15         Q51 N117027 0 0 CMOSN  
+ L=15u  
+ W=375u         
M_C_F_C51_M10         C_F_C51_NDBIAS N117027 0 0 CMOSN  
+ L=20u  
+ W=20u         
M_C_F_C36_M6         C_F_C36_NDNEG N117007 C_F_C36_NDBIAS 0 CMOSN  
+ L=20u  
+ W=89u         
M_C_F_C36_M7         C_F_C36_NDPOS C_N117512 C_F_C36_NDBIAS 0 CMOSN  
+ L=20u  
+ W=89u         
M_C_F_C36_M8         C_F_C36_NDNEG C_F_C36_NDNEG N116990 N116990 CMOSP  
+ L=25u  
+ W=37u         
M_C_F_C36_M14         Q36 C_F_C36_NDPOS N116990 N116990 CMOSP  
+ L=15u  
+ W=1097u         
M_C_F_C36_M9         C_F_C36_NDPOS C_F_C36_NDNEG N116990 N116990 CMOSP  
+ L=25u  
+ W=37u         
M_C_F_C36_M15         Q36 N117027 0 0 CMOSN  
+ L=15u  
+ W=375u         
M_C_F_C36_M10         C_F_C36_NDBIAS N117027 0 0 CMOSN  
+ L=20u  
+ W=20u         
M_C_F_C61_M6         C_F_C61_NDNEG N117007 C_F_C61_NDBIAS 0 CMOSN  
+ L=20u  
+ W=89u         
M_C_F_C61_M7         C_F_C61_NDPOS C_N119885 C_F_C61_NDBIAS 0 CMOSN  
+ L=20u  
+ W=89u         
M_C_F_C61_M8         C_F_C61_NDNEG C_F_C61_NDNEG N116990 N116990 CMOSP  
+ L=25u  
+ W=37u         
M_C_F_C61_M14         Q61 C_F_C61_NDPOS N116990 N116990 CMOSP  
+ L=15u  
+ W=1097u         
M_C_F_C61_M9         C_F_C61_NDPOS C_F_C61_NDNEG N116990 N116990 CMOSP  
+ L=25u  
+ W=37u         
M_C_F_C61_M15         Q61 N117027 0 0 CMOSN  
+ L=15u  
+ W=375u         
M_C_F_C61_M10         C_F_C61_NDBIAS N117027 0 0 CMOSN  
+ L=20u  
+ W=20u         
M_C_F_R4_NAND6_M5         C_F_R4_N62152 C_F_R4_Y N116990 N116990 CMOSP  
+ L=.186u  
+ W=.25u         
M_C_F_R4_NAND6_M6         C_F_R4_N62152 C_F_R4_Y C_F_R4_NAND6_ND2 0 CMOSN  
+ L=.2u  
+ W=.232u         
M_C_F_R4_NAND6_M2         C_F_R4_NAND6_ND2 C_F_D_4SB 0 0 CMOSN  
+ L=.2u  
+ W=.232u         
M_C_F_R4_NAND6_M4         C_F_R4_N62152 C_F_D_4SB N116990 N116990 CMOSP  
+ L=.186u  
+ W=.25u         
M_C_F_R4_NAND1_M2         C_F_R4_NAND1_ND2 N116976 C_F_R4_NAND1_ND3 0 CMOSN  
+ L=.18u  
+ W=.37u         
M_C_F_R4_NAND1_M3         C_F_R4_Y C_F_R4_X N116990 N116990 CMOSP  
+ L=.25u  
+ W=.26u         
M_C_F_R4_NAND1_M6         C_F_R4_NAND1_ND3 C_F_R4_N62152 0 0 CMOSN  
+ L=.18u  
+ W=.37u         
M_C_F_R4_NAND1_M4         C_F_R4_Y N116976 N116990 N116990 CMOSP  
+ L=.25u  
+ W=.26u         
M_C_F_R4_NAND1_M1         C_F_R4_Y C_F_R4_X C_F_R4_NAND1_ND2 0 CMOSN  
+ L=.18u  
+ W=.37u         
M_C_F_R4_NAND1_M5         C_F_R4_Y C_F_R4_N62152 N116990 N116990 CMOSP  
+ L=.25u  
+ W=.26u         
M_C_F_R4_NAND2_M5         C_F_R4_N62128 C_F_R4_N62152 N116990 N116990 CMOSP  
+ L=.186u  
+ W=.25u         
M_C_F_R4_NAND2_M6         C_F_R4_N62128 C_F_R4_N62152 C_F_R4_NAND2_ND2 0 CMOSN 
+  
+ L=.2u  
+ W=.232u         
M_C_F_R4_NAND2_M2         C_F_R4_NAND2_ND2 C_F_R4_X 0 0 CMOSN  
+ L=.2u  
+ W=.232u         
M_C_F_R4_NAND2_M4         C_F_R4_N62128 C_F_R4_X N116990 N116990 CMOSP  
+ L=.186u  
+ W=.25u         
M_C_F_R4_NAND3_M5         C_F_R4_X C_F_R4_N62128 N116990 N116990 CMOSP  
+ L=.186u  
+ W=.25u         
M_C_F_R4_NAND3_M6         C_F_R4_X C_F_R4_N62128 C_F_R4_NAND3_ND2 0 CMOSN  
+ L=.2u  
+ W=.232u         
M_C_F_R4_NAND3_M2         C_F_R4_NAND3_ND2 N116976 0 0 CMOSN  
+ L=.2u  
+ W=.232u         
M_C_F_R4_NAND3_M4         C_F_R4_X N116976 N116990 N116990 CMOSP  
+ L=.186u  
+ W=.25u         
M_C_F_R4_NAND4_M5         4SB C_F_R4_X N116990 N116990 CMOSP  
+ L=.186u  
+ W=.25u         
M_C_F_R4_NAND4_M6         4SB C_F_R4_X C_F_R4_NAND4_ND2 0 CMOSN  
+ L=.2u  
+ W=.232u         
M_C_F_R4_NAND4_M2         C_F_R4_NAND4_ND2 N_4SB 0 0 CMOSN  
+ L=.2u  
+ W=.232u         
M_C_F_R4_NAND4_M4         4SB N_4SB N116990 N116990 CMOSP  
+ L=.186u  
+ W=.25u         
M_C_F_R4_NAND5_M5         N_4SB 4SB N116990 N116990 CMOSP  
+ L=.186u  
+ W=.25u         
M_C_F_R4_NAND5_M6         N_4SB 4SB C_F_R4_NAND5_ND2 0 CMOSN  
+ L=.2u  
+ W=.232u         
M_C_F_R4_NAND5_M2         C_F_R4_NAND5_ND2 C_F_R4_Y 0 0 CMOSN  
+ L=.2u  
+ W=.232u         
M_C_F_R4_NAND5_M4         N_4SB C_F_R4_Y N116990 N116990 CMOSP  
+ L=.186u  
+ W=.25u         
M_C_F_C29_M6         C_F_C29_NDNEG N117007 C_F_C29_NDBIAS 0 CMOSN  
+ L=20u  
+ W=89u         
M_C_F_C29_M7         C_F_C29_NDPOS C_N117542 C_F_C29_NDBIAS 0 CMOSN  
+ L=20u  
+ W=89u         
M_C_F_C29_M8         C_F_C29_NDNEG C_F_C29_NDNEG N116990 N116990 CMOSP  
+ L=25u  
+ W=37u         
M_C_F_C29_M14         Q29 C_F_C29_NDPOS N116990 N116990 CMOSP  
+ L=15u  
+ W=1097u         
M_C_F_C29_M9         C_F_C29_NDPOS C_F_C29_NDNEG N116990 N116990 CMOSP  
+ L=25u  
+ W=37u         
M_C_F_C29_M15         Q29 N117027 0 0 CMOSN  
+ L=15u  
+ W=375u         
M_C_F_C29_M10         C_F_C29_NDBIAS N117027 0 0 CMOSN  
+ L=20u  
+ W=20u         
M_C_F_C40_M6         C_F_C40_NDNEG N117007 C_F_C40_NDBIAS 0 CMOSN  
+ L=20u  
+ W=89u         
M_C_F_C40_M7         C_F_C40_NDPOS C_N117504 C_F_C40_NDBIAS 0 CMOSN  
+ L=20u  
+ W=89u         
M_C_F_C40_M8         C_F_C40_NDNEG C_F_C40_NDNEG N116990 N116990 CMOSP  
+ L=25u  
+ W=37u         
M_C_F_C40_M14         Q40 C_F_C40_NDPOS N116990 N116990 CMOSP  
+ L=15u  
+ W=1097u         
M_C_F_C40_M9         C_F_C40_NDPOS C_F_C40_NDNEG N116990 N116990 CMOSP  
+ L=25u  
+ W=37u         
M_C_F_C40_M15         Q40 N117027 0 0 CMOSN  
+ L=15u  
+ W=375u         
M_C_F_C40_M10         C_F_C40_NDBIAS N117027 0 0 CMOSN  
+ L=20u  
+ W=20u         
M_C_F_R1_NAND6_M5         C_F_R1_N62152 C_F_R1_Y N116990 N116990 CMOSP  
+ L=.186u  
+ W=.25u         
M_C_F_R1_NAND6_M6         C_F_R1_N62152 C_F_R1_Y C_F_R1_NAND6_ND2 0 CMOSN  
+ L=.2u  
+ W=.232u         
M_C_F_R1_NAND6_M2         C_F_R1_NAND6_ND2 C_F_D_LSB 0 0 CMOSN  
+ L=.2u  
+ W=.232u         
M_C_F_R1_NAND6_M4         C_F_R1_N62152 C_F_D_LSB N116990 N116990 CMOSP  
+ L=.186u  
+ W=.25u         
M_C_F_R1_NAND1_M2         C_F_R1_NAND1_ND2 N116976 C_F_R1_NAND1_ND3 0 CMOSN  
+ L=.18u  
+ W=.37u         
M_C_F_R1_NAND1_M3         C_F_R1_Y C_F_R1_X N116990 N116990 CMOSP  
+ L=.25u  
+ W=.26u         
M_C_F_R1_NAND1_M6         C_F_R1_NAND1_ND3 C_F_R1_N62152 0 0 CMOSN  
+ L=.18u  
+ W=.37u         
M_C_F_R1_NAND1_M4         C_F_R1_Y N116976 N116990 N116990 CMOSP  
+ L=.25u  
+ W=.26u         
M_C_F_R1_NAND1_M1         C_F_R1_Y C_F_R1_X C_F_R1_NAND1_ND2 0 CMOSN  
+ L=.18u  
+ W=.37u         
M_C_F_R1_NAND1_M5         C_F_R1_Y C_F_R1_N62152 N116990 N116990 CMOSP  
+ L=.25u  
+ W=.26u         
M_C_F_R1_NAND2_M5         C_F_R1_N62128 C_F_R1_N62152 N116990 N116990 CMOSP  
+ L=.186u  
+ W=.25u         
M_C_F_R1_NAND2_M6         C_F_R1_N62128 C_F_R1_N62152 C_F_R1_NAND2_ND2 0 CMOSN 
+  
+ L=.2u  
+ W=.232u         
M_C_F_R1_NAND2_M2         C_F_R1_NAND2_ND2 C_F_R1_X 0 0 CMOSN  
+ L=.2u  
+ W=.232u         
M_C_F_R1_NAND2_M4         C_F_R1_N62128 C_F_R1_X N116990 N116990 CMOSP  
+ L=.186u  
+ W=.25u         
M_C_F_R1_NAND3_M5         C_F_R1_X C_F_R1_N62128 N116990 N116990 CMOSP  
+ L=.186u  
+ W=.25u         
M_C_F_R1_NAND3_M6         C_F_R1_X C_F_R1_N62128 C_F_R1_NAND3_ND2 0 CMOSN  
+ L=.2u  
+ W=.232u         
M_C_F_R1_NAND3_M2         C_F_R1_NAND3_ND2 N116976 0 0 CMOSN  
+ L=.2u  
+ W=.232u         
M_C_F_R1_NAND3_M4         C_F_R1_X N116976 N116990 N116990 CMOSP  
+ L=.186u  
+ W=.25u         
M_C_F_R1_NAND4_M5         LSB C_F_R1_X N116990 N116990 CMOSP  
+ L=.186u  
+ W=.25u         
M_C_F_R1_NAND4_M6         LSB C_F_R1_X C_F_R1_NAND4_ND2 0 CMOSN  
+ L=.2u  
+ W=.232u         
M_C_F_R1_NAND4_M2         C_F_R1_NAND4_ND2 N_LSB 0 0 CMOSN  
+ L=.2u  
+ W=.232u         
M_C_F_R1_NAND4_M4         LSB N_LSB N116990 N116990 CMOSP  
+ L=.186u  
+ W=.25u         
M_C_F_R1_NAND5_M5         N_LSB LSB N116990 N116990 CMOSP  
+ L=.186u  
+ W=.25u         
M_C_F_R1_NAND5_M6         N_LSB LSB C_F_R1_NAND5_ND2 0 CMOSN  
+ L=.2u  
+ W=.232u         
M_C_F_R1_NAND5_M2         C_F_R1_NAND5_ND2 C_F_R1_Y 0 0 CMOSN  
+ L=.2u  
+ W=.232u         
M_C_F_R1_NAND5_M4         N_LSB C_F_R1_Y N116990 N116990 CMOSP  
+ L=.186u  
+ W=.25u         
M_C_F_C56_M6         C_F_C56_NDNEG N117007 C_F_C56_NDBIAS 0 CMOSN  
+ L=20u  
+ W=89u         
M_C_F_C56_M7         C_F_C56_NDPOS C_N119895 C_F_C56_NDBIAS 0 CMOSN  
+ L=20u  
+ W=89u         
M_C_F_C56_M8         C_F_C56_NDNEG C_F_C56_NDNEG N116990 N116990 CMOSP  
+ L=25u  
+ W=37u         
M_C_F_C56_M14         Q56 C_F_C56_NDPOS N116990 N116990 CMOSP  
+ L=15u  
+ W=1097u         
M_C_F_C56_M9         C_F_C56_NDPOS C_F_C56_NDNEG N116990 N116990 CMOSP  
+ L=25u  
+ W=37u         
M_C_F_C56_M15         Q56 N117027 0 0 CMOSN  
+ L=15u  
+ W=375u         
M_C_F_C56_M10         C_F_C56_NDBIAS N117027 0 0 CMOSN  
+ L=20u  
+ W=20u         
M_C_F_C52_M6         C_F_C52_NDNEG N117007 C_F_C52_NDBIAS 0 CMOSN  
+ L=20u  
+ W=89u         
M_C_F_C52_M7         C_F_C52_NDPOS C_N119907 C_F_C52_NDBIAS 0 CMOSN  
+ L=20u  
+ W=89u         
M_C_F_C52_M8         C_F_C52_NDNEG C_F_C52_NDNEG N116990 N116990 CMOSP  
+ L=25u  
+ W=37u         
M_C_F_C52_M14         Q52 C_F_C52_NDPOS N116990 N116990 CMOSP  
+ L=15u  
+ W=1097u         
M_C_F_C52_M9         C_F_C52_NDPOS C_F_C52_NDNEG N116990 N116990 CMOSP  
+ L=25u  
+ W=37u         
M_C_F_C52_M15         Q52 N117027 0 0 CMOSN  
+ L=15u  
+ W=375u         
M_C_F_C52_M10         C_F_C52_NDBIAS N117027 0 0 CMOSN  
+ L=20u  
+ W=20u         
M_C_F_C59_M6         C_F_C59_NDNEG N117007 C_F_C59_NDBIAS 0 CMOSN  
+ L=20u  
+ W=89u         
M_C_F_C59_M7         C_F_C59_NDPOS C_N119889 C_F_C59_NDBIAS 0 CMOSN  
+ L=20u  
+ W=89u         
M_C_F_C59_M8         C_F_C59_NDNEG C_F_C59_NDNEG N116990 N116990 CMOSP  
+ L=25u  
+ W=37u         
M_C_F_C59_M14         Q59 C_F_C59_NDPOS N116990 N116990 CMOSP  
+ L=15u  
+ W=1097u         
M_C_F_C59_M9         C_F_C59_NDPOS C_F_C59_NDNEG N116990 N116990 CMOSP  
+ L=25u  
+ W=37u         
M_C_F_C59_M15         Q59 N117027 0 0 CMOSN  
+ L=15u  
+ W=375u         
M_C_F_C59_M10         C_F_C59_NDBIAS N117027 0 0 CMOSN  
+ L=20u  
+ W=20u         
M_C_F_C13_M6         C_F_C13_NDNEG N117007 C_F_C13_NDBIAS 0 CMOSN  
+ L=20u  
+ W=89u         
M_C_F_C13_M7         C_F_C13_NDPOS C_N117558 C_F_C13_NDBIAS 0 CMOSN  
+ L=20u  
+ W=89u         
M_C_F_C13_M8         C_F_C13_NDNEG C_F_C13_NDNEG N116990 N116990 CMOSP  
+ L=25u  
+ W=37u         
M_C_F_C13_M14         Q13 C_F_C13_NDPOS N116990 N116990 CMOSP  
+ L=15u  
+ W=1097u         
M_C_F_C13_M9         C_F_C13_NDPOS C_F_C13_NDNEG N116990 N116990 CMOSP  
+ L=25u  
+ W=37u         
M_C_F_C13_M15         Q13 N117027 0 0 CMOSN  
+ L=15u  
+ W=375u         
M_C_F_C13_M10         C_F_C13_NDBIAS N117027 0 0 CMOSN  
+ L=20u  
+ W=20u         
M_C_F_C14_M6         C_F_C14_NDNEG N117007 C_F_C14_NDBIAS 0 CMOSN  
+ L=20u  
+ W=89u         
M_C_F_C14_M7         C_F_C14_NDPOS C_N117556 C_F_C14_NDBIAS 0 CMOSN  
+ L=20u  
+ W=89u         
M_C_F_C14_M8         C_F_C14_NDNEG C_F_C14_NDNEG N116990 N116990 CMOSP  
+ L=25u  
+ W=37u         
M_C_F_C14_M14         Q14 C_F_C14_NDPOS N116990 N116990 CMOSP  
+ L=15u  
+ W=1097u         
M_C_F_C14_M9         C_F_C14_NDPOS C_F_C14_NDNEG N116990 N116990 CMOSP  
+ L=25u  
+ W=37u         
M_C_F_C14_M15         Q14 N117027 0 0 CMOSN  
+ L=15u  
+ W=375u         
M_C_F_C14_M10         C_F_C14_NDBIAS N117027 0 0 CMOSN  
+ L=20u  
+ W=20u         
M_C_F_C12_M6         C_F_C12_NDNEG N117007 C_F_C12_NDBIAS 0 CMOSN  
+ L=20u  
+ W=89u         
M_C_F_C12_M7         C_F_C12_NDPOS C_N117560 C_F_C12_NDBIAS 0 CMOSN  
+ L=20u  
+ W=89u         
M_C_F_C12_M8         C_F_C12_NDNEG C_F_C12_NDNEG N116990 N116990 CMOSP  
+ L=25u  
+ W=37u         
M_C_F_C12_M14         Q12 C_F_C12_NDPOS N116990 N116990 CMOSP  
+ L=15u  
+ W=1097u         
M_C_F_C12_M9         C_F_C12_NDPOS C_F_C12_NDNEG N116990 N116990 CMOSP  
+ L=25u  
+ W=37u         
M_C_F_C12_M15         Q12 N117027 0 0 CMOSN  
+ L=15u  
+ W=375u         
M_C_F_C12_M10         C_F_C12_NDBIAS N117027 0 0 CMOSN  
+ L=20u  
+ W=20u         
M_C_F_C30_M6         C_F_C30_NDNEG N117007 C_F_C30_NDBIAS 0 CMOSN  
+ L=20u  
+ W=89u         
M_C_F_C30_M7         C_F_C30_NDPOS C_N117544 C_F_C30_NDBIAS 0 CMOSN  
+ L=20u  
+ W=89u         
M_C_F_C30_M8         C_F_C30_NDNEG C_F_C30_NDNEG N116990 N116990 CMOSP  
+ L=25u  
+ W=37u         
M_C_F_C30_M14         Q30 C_F_C30_NDPOS N116990 N116990 CMOSP  
+ L=15u  
+ W=1097u         
M_C_F_C30_M9         C_F_C30_NDPOS C_F_C30_NDNEG N116990 N116990 CMOSP  
+ L=25u  
+ W=37u         
M_C_F_C30_M15         Q30 N117027 0 0 CMOSN  
+ L=15u  
+ W=375u         
M_C_F_C30_M10         C_F_C30_NDBIAS N117027 0 0 CMOSN  
+ L=20u  
+ W=20u         
M_C_F_C35_M6         C_F_C35_NDNEG N117007 C_F_C35_NDBIAS 0 CMOSN  
+ L=20u  
+ W=89u         
M_C_F_C35_M7         C_F_C35_NDPOS C_N117514 C_F_C35_NDBIAS 0 CMOSN  
+ L=20u  
+ W=89u         
M_C_F_C35_M8         C_F_C35_NDNEG C_F_C35_NDNEG N116990 N116990 CMOSP  
+ L=25u  
+ W=37u         
M_C_F_C35_M14         Q35 C_F_C35_NDPOS N116990 N116990 CMOSP  
+ L=15u  
+ W=1097u         
M_C_F_C35_M9         C_F_C35_NDPOS C_F_C35_NDNEG N116990 N116990 CMOSP  
+ L=25u  
+ W=37u         
M_C_F_C35_M15         Q35 N117027 0 0 CMOSN  
+ L=15u  
+ W=375u         
M_C_F_C35_M10         C_F_C35_NDBIAS N117027 0 0 CMOSN  
+ L=20u  
+ W=20u         
M_C_F_C39_M6         C_F_C39_NDNEG N117007 C_F_C39_NDBIAS 0 CMOSN  
+ L=20u  
+ W=89u         
M_C_F_C39_M7         C_F_C39_NDPOS C_N117506 C_F_C39_NDBIAS 0 CMOSN  
+ L=20u  
+ W=89u         
M_C_F_C39_M8         C_F_C39_NDNEG C_F_C39_NDNEG N116990 N116990 CMOSP  
+ L=25u  
+ W=37u         
M_C_F_C39_M14         Q39 C_F_C39_NDPOS N116990 N116990 CMOSP  
+ L=15u  
+ W=1097u         
M_C_F_C39_M9         C_F_C39_NDPOS C_F_C39_NDNEG N116990 N116990 CMOSP  
+ L=25u  
+ W=37u         
M_C_F_C39_M15         Q39 N117027 0 0 CMOSN  
+ L=15u  
+ W=375u         
M_C_F_C39_M10         C_F_C39_NDBIAS N117027 0 0 CMOSN  
+ L=20u  
+ W=20u         
M_C_F_C15_M6         C_F_C15_NDNEG N117007 C_F_C15_NDBIAS 0 CMOSN  
+ L=20u  
+ W=89u         
M_C_F_C15_M7         C_F_C15_NDPOS C_N117554 C_F_C15_NDBIAS 0 CMOSN  
+ L=20u  
+ W=89u         
M_C_F_C15_M8         C_F_C15_NDNEG C_F_C15_NDNEG N116990 N116990 CMOSP  
+ L=25u  
+ W=37u         
M_C_F_C15_M14         Q15 C_F_C15_NDPOS N116990 N116990 CMOSP  
+ L=15u  
+ W=1097u         
M_C_F_C15_M9         C_F_C15_NDPOS C_F_C15_NDNEG N116990 N116990 CMOSP  
+ L=25u  
+ W=37u         
M_C_F_C15_M15         Q15 N117027 0 0 CMOSN  
+ L=15u  
+ W=375u         
M_C_F_C15_M10         C_F_C15_NDBIAS N117027 0 0 CMOSN  
+ L=20u  
+ W=20u         
M_C_F_C11_M6         C_F_C11_NDNEG N117007 C_F_C11_NDBIAS 0 CMOSN  
+ L=20u  
+ W=89u         
M_C_F_C11_M7         C_F_C11_NDPOS C_N117562 C_F_C11_NDBIAS 0 CMOSN  
+ L=20u  
+ W=89u         
M_C_F_C11_M8         C_F_C11_NDNEG C_F_C11_NDNEG N116990 N116990 CMOSP  
+ L=25u  
+ W=37u         
M_C_F_C11_M14         Q11 C_F_C11_NDPOS N116990 N116990 CMOSP  
+ L=15u  
+ W=1097u         
M_C_F_C11_M9         C_F_C11_NDPOS C_F_C11_NDNEG N116990 N116990 CMOSP  
+ L=25u  
+ W=37u         
M_C_F_C11_M15         Q11 N117027 0 0 CMOSN  
+ L=15u  
+ W=375u         
M_C_F_C11_M10         C_F_C11_NDBIAS N117027 0 0 CMOSN  
+ L=20u  
+ W=20u         
M_C_F_C6_M6         C_F_C6_NDNEG N117007 C_F_C6_NDBIAS 0 CMOSN  
+ L=20u  
+ W=89u         
M_C_F_C6_M7         C_F_C6_NDPOS C_N117572 C_F_C6_NDBIAS 0 CMOSN  
+ L=20u  
+ W=89u         
M_C_F_C6_M8         C_F_C6_NDNEG C_F_C6_NDNEG N116990 N116990 CMOSP  
+ L=25u  
+ W=37u         
M_C_F_C6_M14         Q6 C_F_C6_NDPOS N116990 N116990 CMOSP  
+ L=15u  
+ W=1097u         
M_C_F_C6_M9         C_F_C6_NDPOS C_F_C6_NDNEG N116990 N116990 CMOSP  
+ L=25u  
+ W=37u         
M_C_F_C6_M15         Q6 N117027 0 0 CMOSN  
+ L=15u  
+ W=375u         
M_C_F_C6_M10         C_F_C6_NDBIAS N117027 0 0 CMOSN  
+ L=20u  
+ W=20u         
M_C_F_C16_M6         C_F_C16_NDNEG N117007 C_F_C16_NDBIAS 0 CMOSN  
+ L=20u  
+ W=89u         
M_C_F_C16_M7         C_F_C16_NDPOS C_N117552 C_F_C16_NDBIAS 0 CMOSN  
+ L=20u  
+ W=89u         
M_C_F_C16_M8         C_F_C16_NDNEG C_F_C16_NDNEG N116990 N116990 CMOSP  
+ L=25u  
+ W=37u         
M_C_F_C16_M14         Q16 C_F_C16_NDPOS N116990 N116990 CMOSP  
+ L=15u  
+ W=1097u         
M_C_F_C16_M9         C_F_C16_NDPOS C_F_C16_NDNEG N116990 N116990 CMOSP  
+ L=25u  
+ W=37u         
M_C_F_C16_M15         Q16 N117027 0 0 CMOSN  
+ L=15u  
+ W=375u         
M_C_F_C16_M10         C_F_C16_NDBIAS N117027 0 0 CMOSN  
+ L=20u  
+ W=20u         
M_C_F_C10_M6         C_F_C10_NDNEG N117007 C_F_C10_NDBIAS 0 CMOSN  
+ L=20u  
+ W=89u         
M_C_F_C10_M7         C_F_C10_NDPOS C_N117580 C_F_C10_NDBIAS 0 CMOSN  
+ L=20u  
+ W=89u         
M_C_F_C10_M8         C_F_C10_NDNEG C_F_C10_NDNEG N116990 N116990 CMOSP  
+ L=25u  
+ W=37u         
M_C_F_C10_M14         Q10 C_F_C10_NDPOS N116990 N116990 CMOSP  
+ L=15u  
+ W=1097u         
M_C_F_C10_M9         C_F_C10_NDPOS C_F_C10_NDNEG N116990 N116990 CMOSP  
+ L=25u  
+ W=37u         
M_C_F_C10_M15         Q10 N117027 0 0 CMOSN  
+ L=15u  
+ W=375u         
M_C_F_C10_M10         C_F_C10_NDBIAS N117027 0 0 CMOSN  
+ L=20u  
+ W=20u         
M_C_F_C53_M6         C_F_C53_NDNEG N117007 C_F_C53_NDBIAS 0 CMOSN  
+ L=20u  
+ W=89u         
M_C_F_C53_M7         C_F_C53_NDPOS C_N119901 C_F_C53_NDBIAS 0 CMOSN  
+ L=20u  
+ W=89u         
M_C_F_C53_M8         C_F_C53_NDNEG C_F_C53_NDNEG N116990 N116990 CMOSP  
+ L=25u  
+ W=37u         
M_C_F_C53_M14         Q53 C_F_C53_NDPOS N116990 N116990 CMOSP  
+ L=15u  
+ W=1097u         
M_C_F_C53_M9         C_F_C53_NDPOS C_F_C53_NDNEG N116990 N116990 CMOSP  
+ L=25u  
+ W=37u         
M_C_F_C53_M15         Q53 N117027 0 0 CMOSN  
+ L=15u  
+ W=375u         
M_C_F_C53_M10         C_F_C53_NDBIAS N117027 0 0 CMOSN  
+ L=20u  
+ W=20u         
M_C_F_R5_NAND6_M5         C_F_R5_N62152 C_F_R5_Y N116990 N116990 CMOSP  
+ L=.186u  
+ W=.25u         
M_C_F_R5_NAND6_M6         C_F_R5_N62152 C_F_R5_Y C_F_R5_NAND6_ND2 0 CMOSN  
+ L=.2u  
+ W=.232u         
M_C_F_R5_NAND6_M2         C_F_R5_NAND6_ND2 C_F_D_5SB 0 0 CMOSN  
+ L=.2u  
+ W=.232u         
M_C_F_R5_NAND6_M4         C_F_R5_N62152 C_F_D_5SB N116990 N116990 CMOSP  
+ L=.186u  
+ W=.25u         
M_C_F_R5_NAND1_M2         C_F_R5_NAND1_ND2 N116976 C_F_R5_NAND1_ND3 0 CMOSN  
+ L=.18u  
+ W=.37u         
M_C_F_R5_NAND1_M3         C_F_R5_Y C_F_R5_X N116990 N116990 CMOSP  
+ L=.25u  
+ W=.26u         
M_C_F_R5_NAND1_M6         C_F_R5_NAND1_ND3 C_F_R5_N62152 0 0 CMOSN  
+ L=.18u  
+ W=.37u         
M_C_F_R5_NAND1_M4         C_F_R5_Y N116976 N116990 N116990 CMOSP  
+ L=.25u  
+ W=.26u         
M_C_F_R5_NAND1_M1         C_F_R5_Y C_F_R5_X C_F_R5_NAND1_ND2 0 CMOSN  
+ L=.18u  
+ W=.37u         
M_C_F_R5_NAND1_M5         C_F_R5_Y C_F_R5_N62152 N116990 N116990 CMOSP  
+ L=.25u  
+ W=.26u         
M_C_F_R5_NAND2_M5         C_F_R5_N62128 C_F_R5_N62152 N116990 N116990 CMOSP  
+ L=.186u  
+ W=.25u         
M_C_F_R5_NAND2_M6         C_F_R5_N62128 C_F_R5_N62152 C_F_R5_NAND2_ND2 0 CMOSN 
+  
+ L=.2u  
+ W=.232u         
M_C_F_R5_NAND2_M2         C_F_R5_NAND2_ND2 C_F_R5_X 0 0 CMOSN  
+ L=.2u  
+ W=.232u         
M_C_F_R5_NAND2_M4         C_F_R5_N62128 C_F_R5_X N116990 N116990 CMOSP  
+ L=.186u  
+ W=.25u         
M_C_F_R5_NAND3_M5         C_F_R5_X C_F_R5_N62128 N116990 N116990 CMOSP  
+ L=.186u  
+ W=.25u         
M_C_F_R5_NAND3_M6         C_F_R5_X C_F_R5_N62128 C_F_R5_NAND3_ND2 0 CMOSN  
+ L=.2u  
+ W=.232u         
M_C_F_R5_NAND3_M2         C_F_R5_NAND3_ND2 N116976 0 0 CMOSN  
+ L=.2u  
+ W=.232u         
M_C_F_R5_NAND3_M4         C_F_R5_X N116976 N116990 N116990 CMOSP  
+ L=.186u  
+ W=.25u         
M_C_F_R5_NAND4_M5         5SB C_F_R5_X N116990 N116990 CMOSP  
+ L=.186u  
+ W=.25u         
M_C_F_R5_NAND4_M6         5SB C_F_R5_X C_F_R5_NAND4_ND2 0 CMOSN  
+ L=.2u  
+ W=.232u         
M_C_F_R5_NAND4_M2         C_F_R5_NAND4_ND2 N_5SB 0 0 CMOSN  
+ L=.2u  
+ W=.232u         
M_C_F_R5_NAND4_M4         5SB N_5SB N116990 N116990 CMOSP  
+ L=.186u  
+ W=.25u         
M_C_F_R5_NAND5_M5         N_5SB 5SB N116990 N116990 CMOSP  
+ L=.186u  
+ W=.25u         
M_C_F_R5_NAND5_M6         N_5SB 5SB C_F_R5_NAND5_ND2 0 CMOSN  
+ L=.2u  
+ W=.232u         
M_C_F_R5_NAND5_M2         C_F_R5_NAND5_ND2 C_F_R5_Y 0 0 CMOSN  
+ L=.2u  
+ W=.232u         
M_C_F_R5_NAND5_M4         N_5SB C_F_R5_Y N116990 N116990 CMOSP  
+ L=.186u  
+ W=.25u         
M_C_F_C22_M6         C_F_C22_NDNEG N117007 C_F_C22_NDBIAS 0 CMOSN  
+ L=20u  
+ W=89u         
M_C_F_C22_M7         C_F_C22_NDPOS C_N117528 C_F_C22_NDBIAS 0 CMOSN  
+ L=20u  
+ W=89u         
M_C_F_C22_M8         C_F_C22_NDNEG C_F_C22_NDNEG N116990 N116990 CMOSP  
+ L=25u  
+ W=37u         
M_C_F_C22_M14         Q22 C_F_C22_NDPOS N116990 N116990 CMOSP  
+ L=15u  
+ W=1097u         
M_C_F_C22_M9         C_F_C22_NDPOS C_F_C22_NDNEG N116990 N116990 CMOSP  
+ L=25u  
+ W=37u         
M_C_F_C22_M15         Q22 N117027 0 0 CMOSN  
+ L=15u  
+ W=375u         
M_C_F_C22_M10         C_F_C22_NDBIAS N117027 0 0 CMOSN  
+ L=20u  
+ W=20u         
M_C_F_C23_M6         C_F_C23_NDNEG N117007 C_F_C23_NDBIAS 0 CMOSN  
+ L=20u  
+ W=89u         
M_C_F_C23_M7         C_F_C23_NDPOS C_N117530 C_F_C23_NDBIAS 0 CMOSN  
+ L=20u  
+ W=89u         
M_C_F_C23_M8         C_F_C23_NDNEG C_F_C23_NDNEG N116990 N116990 CMOSP  
+ L=25u  
+ W=37u         
M_C_F_C23_M14         Q23 C_F_C23_NDPOS N116990 N116990 CMOSP  
+ L=15u  
+ W=1097u         
M_C_F_C23_M9         C_F_C23_NDPOS C_F_C23_NDNEG N116990 N116990 CMOSP  
+ L=25u  
+ W=37u         
M_C_F_C23_M15         Q23 N117027 0 0 CMOSN  
+ L=15u  
+ W=375u         
M_C_F_C23_M10         C_F_C23_NDBIAS N117027 0 0 CMOSN  
+ L=20u  
+ W=20u         
M_C_F_C21_M6         C_F_C21_NDNEG N117007 C_F_C21_NDBIAS 0 CMOSN  
+ L=20u  
+ W=89u         
M_C_F_C21_M7         C_F_C21_NDPOS C_N117526 C_F_C21_NDBIAS 0 CMOSN  
+ L=20u  
+ W=89u         
M_C_F_C21_M8         C_F_C21_NDNEG C_F_C21_NDNEG N116990 N116990 CMOSP  
+ L=25u  
+ W=37u         
M_C_F_C21_M14         Q21 C_F_C21_NDPOS N116990 N116990 CMOSP  
+ L=15u  
+ W=1097u         
M_C_F_C21_M9         C_F_C21_NDPOS C_F_C21_NDNEG N116990 N116990 CMOSP  
+ L=25u  
+ W=37u         
M_C_F_C21_M15         Q21 N117027 0 0 CMOSN  
+ L=15u  
+ W=375u         
M_C_F_C21_M10         C_F_C21_NDBIAS N117027 0 0 CMOSN  
+ L=20u  
+ W=20u         
M_C_F_C1_M6         C_F_C1_NDNEG N117007 C_F_C1_NDBIAS 0 CMOSN  
+ L=20u  
+ W=89u         
M_C_F_C1_M7         C_F_C1_NDPOS C_N117582 C_F_C1_NDBIAS 0 CMOSN  
+ L=20u  
+ W=89u         
M_C_F_C1_M8         C_F_C1_NDNEG C_F_C1_NDNEG N116990 N116990 CMOSP  
+ L=25u  
+ W=37u         
M_C_F_C1_M14         Q1 C_F_C1_NDPOS N116990 N116990 CMOSP  
+ L=15u  
+ W=1097u         
M_C_F_C1_M9         C_F_C1_NDPOS C_F_C1_NDNEG N116990 N116990 CMOSP  
+ L=25u  
+ W=37u         
M_C_F_C1_M15         Q1 N117027 0 0 CMOSN  
+ L=15u  
+ W=375u         
M_C_F_C1_M10         C_F_C1_NDBIAS N117027 0 0 CMOSN  
+ L=20u  
+ W=20u         
M_C_F_C9_M6         C_F_C9_NDNEG N117007 C_F_C9_NDBIAS 0 CMOSN  
+ L=20u  
+ W=89u         
M_C_F_C9_M7         C_F_C9_NDPOS C_N117578 C_F_C9_NDBIAS 0 CMOSN  
+ L=20u  
+ W=89u         
M_C_F_C9_M8         C_F_C9_NDNEG C_F_C9_NDNEG N116990 N116990 CMOSP  
+ L=25u  
+ W=37u         
M_C_F_C9_M14         Q9 C_F_C9_NDPOS N116990 N116990 CMOSP  
+ L=15u  
+ W=1097u         
M_C_F_C9_M9         C_F_C9_NDPOS C_F_C9_NDNEG N116990 N116990 CMOSP  
+ L=25u  
+ W=37u         
M_C_F_C9_M15         Q9 N117027 0 0 CMOSN  
+ L=15u  
+ W=375u         
M_C_F_C9_M10         C_F_C9_NDBIAS N117027 0 0 CMOSN  
+ L=20u  
+ W=20u         
M_C_F_D_U31_M5         C_F_D_ND2SB1 Q2 N116990 N116990 CMOSP  
+ L=.25u  
+ W=.93u         
M_C_F_D_U31_M6         C_F_D_ND2SB1 Q2 0 0 CMOSN  
+ L=.43u  
+ W=.43u         
M_C_F_D_U16_M5         C_F_D_N565094 Q16 N116990 N116990 CMOSP  
+ L=.25u  
+ W=.93u         
M_C_F_D_U16_M6         C_F_D_N565094 Q16 0 0 CMOSN  
+ L=.43u  
+ W=.43u         
M_C_F_D_U91_M5         C_F_D_NDLSB16 C_F_D_N578578 N116990 N116990 CMOSP  
+ L=.186u  
+ W=.25u         
M_C_F_D_U91_M6         C_F_D_NDLSB16 C_F_D_N578578 C_F_D_U91_ND2 0 CMOSN  
+ L=.2u  
+ W=.232u         
M_C_F_D_U91_M2         C_F_D_U91_ND2 Q31 0 0 CMOSN  
+ L=.2u  
+ W=.232u         
M_C_F_D_U91_M4         C_F_D_NDLSB16 Q31 N116990 N116990 CMOSP  
+ L=.186u  
+ W=.25u         
M_C_F_D_U65_M5         C_F_D_N568485 C_F_D_N941987 N116990 N116990 CMOSP  
+ L=.25u  
+ W=.93u         
M_C_F_D_U65_M6         C_F_D_N568485 C_F_D_N941987 0 0 CMOSN  
+ L=.43u  
+ W=.43u         
M_C_F_D_U2_M5         C_F_D_N259339 C_F_D_MSB N116990 N116990 CMOSP  
+ L=.25u  
+ W=.93u         
M_C_F_D_U2_M6         C_F_D_N259339 C_F_D_MSB 0 0 CMOSN  
+ L=.43u  
+ W=.43u         
M_C_F_D_U96_M5         C_F_D_NDLSB11 C_F_D_N578514 N116990 N116990 CMOSP  
+ L=.186u  
+ W=.25u         
M_C_F_D_U96_M6         C_F_D_NDLSB11 C_F_D_N578514 C_F_D_U96_ND2 0 CMOSN  
+ L=.2u  
+ W=.232u         
M_C_F_D_U96_M2         C_F_D_U96_ND2 Q21 0 0 CMOSN  
+ L=.2u  
+ W=.232u         
M_C_F_D_U96_M4         C_F_D_NDLSB11 Q21 N116990 N116990 CMOSP  
+ L=.186u  
+ W=.25u         
M_C_F_D_U109_M5         C_F_D_N573020 Q48 N116990 N116990 CMOSP  
+ L=.25u  
+ W=.93u         
M_C_F_D_U109_M6         C_F_D_N573020 Q48 0 0 CMOSN  
+ L=.43u  
+ W=.43u         
M_C_F_D_U57_M5         C_F_D_ND2SB12 C_F_D_N567821 N116990 N116990 CMOSP  
+ L=.186u  
+ W=.25u         
M_C_F_D_U57_M6         C_F_D_ND2SB12 C_F_D_N567821 C_F_D_U57_ND2 0 CMOSN  
+ L=.2u  
+ W=.232u         
M_C_F_D_U57_M2         C_F_D_U57_ND2 Q46 0 0 CMOSN  
+ L=.2u  
+ W=.232u         
M_C_F_D_U57_M4         C_F_D_ND2SB12 Q46 N116990 N116990 CMOSP  
+ L=.186u  
+ W=.25u         
M_C_F_D_U28_M5         C_F_D_ND3SB6 C_F_D_N565120 N116990 N116990 CMOSP  
+ L=.186u  
+ W=.25u         
M_C_F_D_U28_M6         C_F_D_ND3SB6 C_F_D_N565120 C_F_D_U28_ND2 0 CMOSN  
+ L=.2u  
+ W=.232u         
M_C_F_D_U28_M2         C_F_D_U28_ND2 Q44 0 0 CMOSN  
+ L=.2u  
+ W=.232u         
M_C_F_D_U28_M4         C_F_D_ND3SB6 Q44 N116990 N116990 CMOSP  
+ L=.186u  
+ W=.25u         
M_C_F_D_U139_M5         C_F_D_NDX4LSB X4 N116990 N116990 CMOSP  
+ L=.25u  
+ W=.93u         
M_C_F_D_U139_M6         C_F_D_NDX4LSB X4 0 0 CMOSN  
+ L=.43u  
+ W=.43u         
M_C_F_D_U74_M5         C_F_D_N578674 Q12 N116990 N116990 CMOSP  
+ L=.25u  
+ W=.93u         
M_C_F_D_U74_M6         C_F_D_N578674 Q12 0 0 CMOSN  
+ L=.43u  
+ W=.43u         
M_C_F_D_U43_M5         C_F_D_N567821 Q44 N116990 N116990 CMOSP  
+ L=.25u  
+ W=.93u         
M_C_F_D_U43_M6         C_F_D_N567821 Q44 0 0 CMOSN  
+ L=.43u  
+ W=.43u         
M_C_F_D_U80_M5         C_F_D_N578524 Q22 N116990 N116990 CMOSP  
+ L=.25u  
+ W=.93u         
M_C_F_D_U80_M6         C_F_D_N578524 Q22 0 0 CMOSN  
+ L=.43u  
+ W=.43u         
M_C_F_D_U14_M5         C_F_D_ND3SB1 Q4 N116990 N116990 CMOSP  
+ L=.25u  
+ W=.93u         
M_C_F_D_U14_M6         C_F_D_ND3SB1 Q4 0 0 CMOSN  
+ L=.43u  
+ W=.43u         
M_C_F_D_U136_M5         C_F_D_NDX1LSB X1 N116990 N116990 CMOSP  
+ L=.25u  
+ W=.93u         
M_C_F_D_U136_M6         C_F_D_NDX1LSB X1 0 0 CMOSN  
+ L=.43u  
+ W=.43u         
M_C_F_D_U116_M5         C_F_D_N573096 Q62 N116990 N116990 CMOSP  
+ L=.25u  
+ W=.93u         
M_C_F_D_U116_M6         C_F_D_N573096 Q62 0 0 CMOSN  
+ L=.43u  
+ W=.43u         
M_C_F_D_U124_M5         C_F_D_NDLSB24 C_F_D_N572160 N116990 N116990 CMOSP  
+ L=.186u  
+ W=.25u         
M_C_F_D_U124_M6         C_F_D_NDLSB24 C_F_D_N572160 C_F_D_U124_ND2 0 CMOSN  
+ L=.2u  
+ W=.232u         
M_C_F_D_U124_M2         C_F_D_U124_ND2 Q47 0 0 CMOSN  
+ L=.2u  
+ W=.232u         
M_C_F_D_U124_M4         C_F_D_NDLSB24 Q47 N116990 N116990 CMOSP  
+ L=.186u  
+ W=.25u         
M_C_F_D_U69_M5         C_F_D_N578608 Q2 N116990 N116990 CMOSP  
+ L=.25u  
+ W=.93u         
M_C_F_D_U69_M6         C_F_D_N578608 Q2 0 0 CMOSN  
+ L=.43u  
+ W=.43u         
M_C_F_D_U86_M5         C_F_D_NDLSB4 C_F_D_N578636 N116990 N116990 CMOSP  
+ L=.186u  
+ W=.25u         
M_C_F_D_U86_M6         C_F_D_NDLSB4 C_F_D_N578636 C_F_D_U86_ND2 0 CMOSN  
+ L=.2u  
+ W=.232u         
M_C_F_D_U86_M2         C_F_D_U86_ND2 Q7 0 0 CMOSN  
+ L=.2u  
+ W=.232u         
M_C_F_D_U86_M4         C_F_D_NDLSB4 Q7 N116990 N116990 CMOSP  
+ L=.186u  
+ W=.25u         
M_C_F_D_U26_M5         C_F_D_ND3SB4 C_F_D_N565104 N116990 N116990 CMOSP  
+ L=.186u  
+ W=.25u         
M_C_F_D_U26_M6         C_F_D_ND3SB4 C_F_D_N565104 C_F_D_U26_ND2 0 CMOSN  
+ L=.2u  
+ W=.232u         
M_C_F_D_U26_M2         C_F_D_U26_ND2 Q28 0 0 CMOSN  
+ L=.2u  
+ W=.232u         
M_C_F_D_U26_M4         C_F_D_ND3SB4 Q28 N116990 N116990 CMOSP  
+ L=.186u  
+ W=.25u         
M_C_F_D_U103_M5         C_F_D_N572104 Q36 N116990 N116990 CMOSP  
+ L=.25u  
+ W=.93u         
M_C_F_D_U103_M6         C_F_D_N572104 Q36 0 0 CMOSN  
+ L=.43u  
+ W=.43u         
M_C_F_D_U37_M5         C_F_D_N568555 Q24 N116990 N116990 CMOSP  
+ L=.25u  
+ W=.93u         
M_C_F_D_U37_M6         C_F_D_N568555 Q24 0 0 CMOSN  
+ L=.43u  
+ W=.43u         
M_C_F_D_U61_M5         C_F_D_ND2SB16 C_F_D_N567861 N116990 N116990 CMOSP  
+ L=.186u  
+ W=.25u         
M_C_F_D_U61_M6         C_F_D_ND2SB16 C_F_D_N567861 C_F_D_U61_ND2 0 CMOSN  
+ L=.2u  
+ W=.232u         
M_C_F_D_U61_M2         C_F_D_U61_ND2 Q62 0 0 CMOSN  
+ L=.2u  
+ W=.232u         
M_C_F_D_U61_M4         C_F_D_ND2SB16 Q62 N116990 N116990 CMOSP  
+ L=.186u  
+ W=.25u         
M_C_F_D_U119_M5         C_F_D_NDLSB19 C_F_D_N572104 N116990 N116990 CMOSP  
+ L=.186u  
+ W=.25u         
M_C_F_D_U119_M6         C_F_D_NDLSB19 C_F_D_N572104 C_F_D_U119_ND2 0 CMOSN  
+ L=.2u  
+ W=.232u         
M_C_F_D_U119_M2         C_F_D_U119_ND2 Q37 0 0 CMOSN  
+ L=.2u  
+ W=.232u         
M_C_F_D_U119_M4         C_F_D_NDLSB19 Q37 N116990 N116990 CMOSP  
+ L=.186u  
+ W=.25u         
M_C_F_D_U48_M5         C_F_D_ND2SB3 C_F_D_N568511 N116990 N116990 CMOSP  
+ L=.186u  
+ W=.25u         
M_C_F_D_U48_M6         C_F_D_ND2SB3 C_F_D_N568511 C_F_D_U48_ND2 0 CMOSN  
+ L=.2u  
+ W=.232u         
M_C_F_D_U48_M2         C_F_D_U48_ND2 Q10 0 0 CMOSN  
+ L=.2u  
+ W=.232u         
M_C_F_D_U48_M4         C_F_D_ND2SB3 Q10 N116990 N116990 CMOSP  
+ L=.186u  
+ W=.25u         
M_C_F_D_U64_M16         C_F_D_N941987 C_F_D_ND2SB12 N116990 N116990 CMOSP  
+ L=.67u  
+ W=.68u         
M_C_F_D_U64_M5         C_F_D_N941987 C_F_D_ND2SB16 N116990 N116990 CMOSP  
+ L=.67u  
+ W=.68u         
M_C_F_D_U64_M11         C_F_D_N941987 C_F_D_ND2SB9 N116990 N116990 CMOSP  
+ L=.67u  
+ W=.68u         
M_C_F_D_U64_M9         C_F_D_N941987 C_F_D_ND2SB14 N116990 N116990 CMOSP  
+ L=.67u  
+ W=.68u         
M_C_F_D_U64_M1         C_F_D_N941987 C_F_D_ND2SB9 C_F_D_U64_ND2 0 CMOSN  
+ L=.18u  
+ W=2.55u         
M_C_F_D_U64_M6         C_F_D_U64_ND3 C_F_D_ND2SB11 C_F_D_U64_ND4 0 CMOSN  
+ L=.18u  
+ W=2.55u         
M_C_F_D_U64_M7         C_F_D_U64_ND4 C_F_D_ND2SB12 C_F_D_U64_ND5 0 CMOSN  
+ L=.18u  
+ W=2.55u         
M_C_F_D_U64_M12         C_F_D_N941987 C_F_D_ND2SB13 N116990 N116990 CMOSP  
+ L=.67u  
+ W=.68u         
M_C_F_D_U64_M2         C_F_D_U64_ND2 C_F_D_ND2SB10 C_F_D_U64_ND3 0 CMOSN  
+ L=.18u  
+ W=2.55u         
M_C_F_D_U64_M13         C_F_D_U64_ND6 C_F_D_ND2SB14 C_F_D_U64_ND7 0 CMOSN  
+ L=.18u  
+ W=2.55u         
M_C_F_D_U64_M10         C_F_D_U64_ND5 C_F_D_ND2SB13 C_F_D_U64_ND6 0 CMOSN  
+ L=.18u  
+ W=2.55u         
M_C_F_D_U64_M3         C_F_D_N941987 C_F_D_ND2SB10 N116990 N116990 CMOSP  
+ L=.67u  
+ W=.68u         
M_C_F_D_U64_M14         C_F_D_U64_ND7 C_F_D_ND2SB15 C_F_D_U64_ND8 0 CMOSN  
+ L=.18u  
+ W=2.55u         
M_C_F_D_U64_M8         C_F_D_N941987 C_F_D_ND2SB15 N116990 N116990 CMOSP  
+ L=.67u  
+ W=.68u         
M_C_F_D_U64_M4         C_F_D_N941987 C_F_D_ND2SB11 N116990 N116990 CMOSP  
+ L=.67u  
+ W=.68u         
M_C_F_D_U64_M15         C_F_D_U64_ND8 C_F_D_ND2SB16 0 0 CMOSN  
+ L=.18u  
+ W=2.55u         
M_C_F_D_U52_M5         C_F_D_ND2SB7 C_F_D_N568555 N116990 N116990 CMOSP  
+ L=.186u  
+ W=.25u         
M_C_F_D_U52_M6         C_F_D_ND2SB7 C_F_D_N568555 C_F_D_U52_ND2 0 CMOSN  
+ L=.2u  
+ W=.232u         
M_C_F_D_U52_M2         C_F_D_U52_ND2 Q26 0 0 CMOSN  
+ L=.2u  
+ W=.232u         
M_C_F_D_U52_M4         C_F_D_ND2SB7 Q26 N116990 N116990 CMOSP  
+ L=.186u  
+ W=.25u         
M_C_F_D_U108_M5         C_F_D_N572160 Q46 N116990 N116990 CMOSP  
+ L=.25u  
+ W=.93u         
M_C_F_D_U108_M6         C_F_D_N572160 Q46 0 0 CMOSN  
+ L=.43u  
+ W=.43u         
M_C_F_D_U35_M5         C_F_D_N568535 Q16 N116990 N116990 CMOSP  
+ L=.25u  
+ W=.93u         
M_C_F_D_U35_M6         C_F_D_N568535 Q16 0 0 CMOSN  
+ L=.43u  
+ W=.43u         
M_C_F_D_U24_M5         C_F_D_ND3SB2 C_F_D_N565082 N116990 N116990 CMOSP  
+ L=.186u  
+ W=.25u         
M_C_F_D_U24_M6         C_F_D_ND3SB2 C_F_D_N565082 C_F_D_U24_ND2 0 CMOSN  
+ L=.2u  
+ W=.232u         
M_C_F_D_U24_M2         C_F_D_U24_ND2 Q12 0 0 CMOSN  
+ L=.2u  
+ W=.232u         
M_C_F_D_U24_M4         C_F_D_ND3SB2 Q12 N116990 N116990 CMOSP  
+ L=.186u  
+ W=.25u         
M_C_F_D_U135_M16         X4 C_F_D_NDLSB28 N116990 N116990 CMOSP  
+ L=.67u  
+ W=.68u         
M_C_F_D_U135_M5         X4 C_F_D_NDLSB32 N116990 N116990 CMOSP  
+ L=.67u  
+ W=.68u         
M_C_F_D_U135_M11         X4 C_F_D_NDLSB25 N116990 N116990 CMOSP  
+ L=.67u  
+ W=.68u         
M_C_F_D_U135_M9         X4 C_F_D_NDLSB30 N116990 N116990 CMOSP  
+ L=.67u  
+ W=.68u         
M_C_F_D_U135_M1         X4 C_F_D_NDLSB25 C_F_D_U135_ND2 0 CMOSN  
+ L=.18u  
+ W=2.55u         
M_C_F_D_U135_M6         C_F_D_U135_ND3 C_F_D_NDLSB27 C_F_D_U135_ND4 0 CMOSN  
+ L=.18u  
+ W=2.55u         
M_C_F_D_U135_M7         C_F_D_U135_ND4 C_F_D_NDLSB28 C_F_D_U135_ND5 0 CMOSN  
+ L=.18u  
+ W=2.55u         
M_C_F_D_U135_M12         X4 C_F_D_NDLSB29 N116990 N116990 CMOSP  
+ L=.67u  
+ W=.68u         
M_C_F_D_U135_M2         C_F_D_U135_ND2 C_F_D_NDLSB26 C_F_D_U135_ND3 0 CMOSN  
+ L=.18u  
+ W=2.55u         
M_C_F_D_U135_M13         C_F_D_U135_ND6 C_F_D_NDLSB30 C_F_D_U135_ND7 0 CMOSN  
+ L=.18u  
+ W=2.55u         
M_C_F_D_U135_M10         C_F_D_U135_ND5 C_F_D_NDLSB29 C_F_D_U135_ND6 0 CMOSN  
+ L=.18u  
+ W=2.55u         
M_C_F_D_U135_M3         X4 C_F_D_NDLSB26 N116990 N116990 CMOSP  
+ L=.67u  
+ W=.68u         
M_C_F_D_U135_M14         C_F_D_U135_ND7 C_F_D_NDLSB31 C_F_D_U135_ND8 0 CMOSN  
+ L=.18u  
+ W=2.55u         
M_C_F_D_U135_M8         X4 C_F_D_NDLSB31 N116990 N116990 CMOSP  
+ L=.67u  
+ W=.68u         
M_C_F_D_U135_M4         X4 C_F_D_NDLSB27 N116990 N116990 CMOSP  
+ L=.67u  
+ W=.68u         
M_C_F_D_U135_M15         C_F_D_U135_ND8 C_F_D_NDLSB32 0 0 CMOSN  
+ L=.18u  
+ W=2.55u         
M_C_F_D_U115_M5         C_F_D_N573086 Q60 N116990 N116990 CMOSP  
+ L=.25u  
+ W=.93u         
M_C_F_D_U115_M6         C_F_D_N573086 Q60 0 0 CMOSN  
+ L=.43u  
+ W=.43u         
M_C_F_D_U90_M5         C_F_D_NDLSB8 C_F_D_N578686 N116990 N116990 CMOSP  
+ L=.186u  
+ W=.25u         
M_C_F_D_U90_M6         C_F_D_NDLSB8 C_F_D_N578686 C_F_D_U90_ND2 0 CMOSN  
+ L=.2u  
+ W=.232u         
M_C_F_D_U90_M2         C_F_D_U90_ND2 Q15 0 0 CMOSN  
+ L=.2u  
+ W=.232u         
M_C_F_D_U90_M4         C_F_D_NDLSB8 Q15 N116990 N116990 CMOSP  
+ L=.186u  
+ W=.25u         
M_C_F_D_U95_M5         C_F_D_NDLSB12 C_F_D_N578524 N116990 N116990 CMOSP  
+ L=.186u  
+ W=.25u         
M_C_F_D_U95_M6         C_F_D_NDLSB12 C_F_D_N578524 C_F_D_U95_ND2 0 CMOSN  
+ L=.2u  
+ W=.232u         
M_C_F_D_U95_M2         C_F_D_U95_ND2 Q23 0 0 CMOSN  
+ L=.2u  
+ W=.232u         
M_C_F_D_U95_M4         C_F_D_NDLSB12 Q23 N116990 N116990 CMOSP  
+ L=.186u  
+ W=.25u         
M_C_F_D_U133_M5         C_F_D_NDLSB25 C_F_D_N573020 N116990 N116990 CMOSP  
+ L=.186u  
+ W=.25u         
M_C_F_D_U133_M6         C_F_D_NDLSB25 C_F_D_N573020 C_F_D_U133_ND2 0 CMOSN  
+ L=.2u  
+ W=.232u         
M_C_F_D_U133_M2         C_F_D_U133_ND2 Q49 0 0 CMOSN  
+ L=.2u  
+ W=.232u         
M_C_F_D_U133_M4         C_F_D_NDLSB25 Q49 N116990 N116990 CMOSP  
+ L=.186u  
+ W=.25u         
M_C_F_D_U79_M5         C_F_D_N578534 Q24 N116990 N116990 CMOSP  
+ L=.25u  
+ W=.93u         
M_C_F_D_U79_M6         C_F_D_N578534 Q24 0 0 CMOSN  
+ L=.43u  
+ W=.43u         
M_C_F_D_U42_M5         C_F_D_N567831 Q48 N116990 N116990 CMOSP  
+ L=.25u  
+ W=.93u         
M_C_F_D_U42_M6         C_F_D_N567831 Q48 0 0 CMOSN  
+ L=.43u  
+ W=.43u         
M_C_F_D_U73_M5         C_F_D_N578662 Q10 N116990 N116990 CMOSP  
+ L=.25u  
+ W=.93u         
M_C_F_D_U73_M6         C_F_D_N578662 Q10 0 0 CMOSN  
+ L=.43u  
+ W=.43u         
M_C_F_D_U9_M5         C_F_D_ND4SB3 C_F_D_N259543 N116990 N116990 CMOSP  
+ L=.186u  
+ W=.25u         
M_C_F_D_U9_M6         C_F_D_ND4SB3 C_F_D_N259543 C_F_D_U9_ND2 0 CMOSN  
+ L=.2u  
+ W=.232u         
M_C_F_D_U9_M2         C_F_D_U9_ND2 Q40 0 0 CMOSN  
+ L=.2u  
+ W=.232u         
M_C_F_D_U9_M4         C_F_D_ND4SB3 Q40 N116990 N116990 CMOSP  
+ L=.186u  
+ W=.25u         
M_C_F_D_U56_M5         C_F_D_ND2SB11 C_F_D_N567811 N116990 N116990 CMOSP  
+ L=.186u  
+ W=.25u         
M_C_F_D_U56_M6         C_F_D_ND2SB11 C_F_D_N567811 C_F_D_U56_ND2 0 CMOSN  
+ L=.2u  
+ W=.232u         
M_C_F_D_U56_M2         C_F_D_U56_ND2 Q42 0 0 CMOSN  
+ L=.2u  
+ W=.232u         
M_C_F_D_U56_M4         C_F_D_ND2SB11 Q42 N116990 N116990 CMOSP  
+ L=.186u  
+ W=.25u         
M_C_F_D_U23_M5         C_F_D_3SB C_F_D_N565340 N116990 N116990 CMOSP  
+ L=.25u  
+ W=.93u         
M_C_F_D_U23_M6         C_F_D_3SB C_F_D_N565340 0 0 CMOSN  
+ L=.43u  
+ W=.43u         
M_C_F_D_U123_M5         C_F_D_NDLSB23 C_F_D_N572144 N116990 N116990 CMOSP  
+ L=.186u  
+ W=.25u         
M_C_F_D_U123_M6         C_F_D_NDLSB23 C_F_D_N572144 C_F_D_U123_ND2 0 CMOSN  
+ L=.2u  
+ W=.232u         
M_C_F_D_U123_M2         C_F_D_U123_ND2 Q45 0 0 CMOSN  
+ L=.2u  
+ W=.232u         
M_C_F_D_U123_M4         C_F_D_NDLSB23 Q45 N116990 N116990 CMOSP  
+ L=.186u  
+ W=.25u         
M_C_F_D_U63_M16         C_F_D_N567419 C_F_D_ND2SB4 N116990 N116990 CMOSP  
+ L=.67u  
+ W=.68u         
M_C_F_D_U63_M5         C_F_D_N567419 C_F_D_ND2SB8 N116990 N116990 CMOSP  
+ L=.67u  
+ W=.68u         
M_C_F_D_U63_M11         C_F_D_N567419 C_F_D_ND2SB1 N116990 N116990 CMOSP  
+ L=.67u  
+ W=.68u         
M_C_F_D_U63_M9         C_F_D_N567419 C_F_D_ND2SB6 N116990 N116990 CMOSP  
+ L=.67u  
+ W=.68u         
M_C_F_D_U63_M1         C_F_D_N567419 C_F_D_ND2SB1 C_F_D_U63_ND2 0 CMOSN  
+ L=.18u  
+ W=2.55u         
M_C_F_D_U63_M6         C_F_D_U63_ND3 C_F_D_ND2SB3 C_F_D_U63_ND4 0 CMOSN  
+ L=.18u  
+ W=2.55u         
M_C_F_D_U63_M7         C_F_D_U63_ND4 C_F_D_ND2SB4 C_F_D_U63_ND5 0 CMOSN  
+ L=.18u  
+ W=2.55u         
M_C_F_D_U63_M12         C_F_D_N567419 C_F_D_ND2SB5 N116990 N116990 CMOSP  
+ L=.67u  
+ W=.68u         
M_C_F_D_U63_M2         C_F_D_U63_ND2 C_F_D_ND2SB2 C_F_D_U63_ND3 0 CMOSN  
+ L=.18u  
+ W=2.55u         
M_C_F_D_U63_M13         C_F_D_U63_ND6 C_F_D_ND2SB6 C_F_D_U63_ND7 0 CMOSN  
+ L=.18u  
+ W=2.55u         
M_C_F_D_U63_M10         C_F_D_U63_ND5 C_F_D_ND2SB5 C_F_D_U63_ND6 0 CMOSN  
+ L=.18u  
+ W=2.55u         
M_C_F_D_U63_M3         C_F_D_N567419 C_F_D_ND2SB2 N116990 N116990 CMOSP  
+ L=.67u  
+ W=.68u         
M_C_F_D_U63_M14         C_F_D_U63_ND7 C_F_D_ND2SB7 C_F_D_U63_ND8 0 CMOSN  
+ L=.18u  
+ W=2.55u         
M_C_F_D_U63_M8         C_F_D_N567419 C_F_D_ND2SB7 N116990 N116990 CMOSP  
+ L=.67u  
+ W=.68u         
M_C_F_D_U63_M4         C_F_D_N567419 C_F_D_ND2SB3 N116990 N116990 CMOSP  
+ L=.67u  
+ W=.68u         
M_C_F_D_U63_M15         C_F_D_U63_ND8 C_F_D_ND2SB8 0 0 CMOSN  
+ L=.18u  
+ W=2.55u         
M_C_F_D_U21_M5         C_F_D_N564924 Q56 N116990 N116990 CMOSP  
+ L=.25u  
+ W=.93u         
M_C_F_D_U21_M6         C_F_D_N564924 Q56 0 0 CMOSN  
+ L=.43u  
+ W=.43u         
M_C_F_D_U134_M16         X3 C_F_D_NDLSB20 N116990 N116990 CMOSP  
+ L=.67u  
+ W=.68u         
M_C_F_D_U134_M5         X3 C_F_D_NDLSB24 N116990 N116990 CMOSP  
+ L=.67u  
+ W=.68u         
M_C_F_D_U134_M11         X3 C_F_D_NDLSB17 N116990 N116990 CMOSP  
+ L=.67u  
+ W=.68u         
M_C_F_D_U134_M9         X3 C_F_D_NDLSB22 N116990 N116990 CMOSP  
+ L=.67u  
+ W=.68u         
M_C_F_D_U134_M1         X3 C_F_D_NDLSB17 C_F_D_U134_ND2 0 CMOSN  
+ L=.18u  
+ W=2.55u         
M_C_F_D_U134_M6         C_F_D_U134_ND3 C_F_D_NDLSB19 C_F_D_U134_ND4 0 CMOSN  
+ L=.18u  
+ W=2.55u         
M_C_F_D_U134_M7         C_F_D_U134_ND4 C_F_D_NDLSB20 C_F_D_U134_ND5 0 CMOSN  
+ L=.18u  
+ W=2.55u         
M_C_F_D_U134_M12         X3 C_F_D_NDLSB21 N116990 N116990 CMOSP  
+ L=.67u  
+ W=.68u         
M_C_F_D_U134_M2         C_F_D_U134_ND2 C_F_D_NDLSB18 C_F_D_U134_ND3 0 CMOSN  
+ L=.18u  
+ W=2.55u         
M_C_F_D_U134_M13         C_F_D_U134_ND6 C_F_D_NDLSB22 C_F_D_U134_ND7 0 CMOSN  
+ L=.18u  
+ W=2.55u         
M_C_F_D_U134_M10         C_F_D_U134_ND5 C_F_D_NDLSB21 C_F_D_U134_ND6 0 CMOSN  
+ L=.18u  
+ W=2.55u         
M_C_F_D_U134_M3         X3 C_F_D_NDLSB18 N116990 N116990 CMOSP  
+ L=.67u  
+ W=.68u         
M_C_F_D_U134_M14         C_F_D_U134_ND7 C_F_D_NDLSB23 C_F_D_U134_ND8 0 CMOSN  
+ L=.18u  
+ W=2.55u         
M_C_F_D_U134_M8         X3 C_F_D_NDLSB23 N116990 N116990 CMOSP  
+ L=.67u  
+ W=.68u         
M_C_F_D_U134_M4         X3 C_F_D_NDLSB19 N116990 N116990 CMOSP  
+ L=.67u  
+ W=.68u         
M_C_F_D_U134_M15         C_F_D_U134_ND8 C_F_D_NDLSB24 0 0 CMOSN  
+ L=.18u  
+ W=2.55u         
M_C_F_D_U3_M5         C_F_D_N259565 Q16 N116990 N116990 CMOSP  
+ L=.25u  
+ W=.93u         
M_C_F_D_U3_M6         C_F_D_N259565 Q16 0 0 CMOSN  
+ L=.43u  
+ W=.43u         
M_C_F_D_U114_M5         C_F_D_N573076 Q58 N116990 N116990 CMOSP  
+ L=.25u  
+ W=.93u         
M_C_F_D_U114_M6         C_F_D_N573076 Q58 0 0 CMOSN  
+ L=.43u  
+ W=.43u         
M_C_F_D_U6_M5         C_F_D_5SB C_F_D_ND5SB1 N116990 N116990 CMOSP  
+ L=.186u  
+ W=.25u         
M_C_F_D_U6_M6         C_F_D_5SB C_F_D_ND5SB1 C_F_D_U6_ND2 0 CMOSN  
+ L=.2u  
+ W=.232u         
M_C_F_D_U6_M2         C_F_D_U6_ND2 C_F_D_ND5SB2 0 0 CMOSN  
+ L=.2u  
+ W=.232u         
M_C_F_D_U6_M4         C_F_D_5SB C_F_D_ND5SB2 N116990 N116990 CMOSP  
+ L=.186u  
+ W=.25u         
M_C_F_D_U102_M5         C_F_D_N572074 Q34 N116990 N116990 CMOSP  
+ L=.25u  
+ W=.93u         
M_C_F_D_U102_M6         C_F_D_N572074 Q34 0 0 CMOSN  
+ L=.43u  
+ W=.43u         
M_C_F_D_U36_M5         C_F_D_N568545 Q20 N116990 N116990 CMOSP  
+ L=.25u  
+ W=.93u         
M_C_F_D_U36_M6         C_F_D_N568545 Q20 0 0 CMOSN  
+ L=.43u  
+ W=.43u         
M_C_F_D_U68_M5         C_F_D_NDLSB1 Q1 N116990 N116990 CMOSP  
+ L=.25u  
+ W=.93u         
M_C_F_D_U68_M6         C_F_D_NDLSB1 Q1 0 0 CMOSN  
+ L=.43u  
+ W=.43u         
M_C_F_D_U85_M5         C_F_D_NDLSB3 C_F_D_N578622 N116990 N116990 CMOSP  
+ L=.186u  
+ W=.25u         
M_C_F_D_U85_M6         C_F_D_NDLSB3 C_F_D_N578622 C_F_D_U85_ND2 0 CMOSN  
+ L=.2u  
+ W=.232u         
M_C_F_D_U85_M2         C_F_D_U85_ND2 Q5 0 0 CMOSN  
+ L=.2u  
+ W=.232u         
M_C_F_D_U85_M4         C_F_D_NDLSB3 Q5 N116990 N116990 CMOSP  
+ L=.186u  
+ W=.25u         
M_C_F_D_U107_M5         C_F_D_N572144 Q44 N116990 N116990 CMOSP  
+ L=.25u  
+ W=.93u         
M_C_F_D_U107_M6         C_F_D_N572144 Q44 0 0 CMOSN  
+ L=.43u  
+ W=.43u         
M_C_F_D_U140_M7         C_F_D_LSB C_F_D_NDX1LSB N116990 N116990 CMOSP  
+ L=.33u  
+ W=.25u         
M_C_F_D_U140_M8         C_F_D_LSB C_F_D_NDX2LSB N116990 N116990 CMOSP  
+ L=.33u  
+ W=.25u         
M_C_F_D_U140_M12         C_F_D_LSB C_F_D_NDX4LSB N116990 N116990 CMOSP  
+ L=.33u  
+ W=.25u         
M_C_F_D_U140_M9         C_F_D_LSB C_F_D_NDX3LSB N116990 N116990 CMOSP  
+ L=.33u  
+ W=.25u         
M_C_F_D_U140_M1         C_F_D_LSB C_F_D_NDX1LSB C_F_D_U140_ND2 0 CMOSN  
+ L=.18u  
+ W=.47u         
M_C_F_D_U140_M10         C_F_D_U140_ND3 C_F_D_NDX3LSB C_F_D_U140_ND4 0 CMOSN  
+ L=.18u  
+ W=.47u         
M_C_F_D_U140_M3         C_F_D_U140_ND2 C_F_D_NDX2LSB C_F_D_U140_ND3 0 CMOSN  
+ L=.18u  
+ W=.47u         
M_C_F_D_U140_M11         C_F_D_U140_ND4 C_F_D_NDX4LSB 0 0 CMOSN  
+ L=.18u  
+ W=.47u         
M_C_F_D_U78_M5         C_F_D_N578552 Q26 N116990 N116990 CMOSP  
+ L=.25u  
+ W=.93u         
M_C_F_D_U78_M6         C_F_D_N578552 Q26 0 0 CMOSN  
+ L=.43u  
+ W=.43u         
M_C_F_D_U60_M5         C_F_D_ND2SB15 C_F_D_N567851 N116990 N116990 CMOSP  
+ L=.186u  
+ W=.25u         
M_C_F_D_U60_M6         C_F_D_ND2SB15 C_F_D_N567851 C_F_D_U60_ND2 0 CMOSN  
+ L=.2u  
+ W=.232u         
M_C_F_D_U60_M2         C_F_D_U60_ND2 Q58 0 0 CMOSN  
+ L=.2u  
+ W=.232u         
M_C_F_D_U60_M4         C_F_D_ND2SB15 Q58 N116990 N116990 CMOSP  
+ L=.186u  
+ W=.25u         
M_C_F_D_U120_M5         C_F_D_NDLSB20 C_F_D_N793529 N116990 N116990 CMOSP  
+ L=.186u  
+ W=.25u         
M_C_F_D_U120_M6         C_F_D_NDLSB20 C_F_D_N793529 C_F_D_U120_ND2 0 CMOSN  
+ L=.2u  
+ W=.232u         
M_C_F_D_U120_M2         C_F_D_U120_ND2 Q39 0 0 CMOSN  
+ L=.2u  
+ W=.232u         
M_C_F_D_U120_M4         C_F_D_NDLSB20 Q39 N116990 N116990 CMOSP  
+ L=.186u  
+ W=.25u         
M_C_F_D_U19_M5         C_F_D_N565120 Q40 N116990 N116990 CMOSP  
+ L=.25u  
+ W=.93u         
M_C_F_D_U19_M6         C_F_D_N565120 Q40 0 0 CMOSN  
+ L=.43u  
+ W=.43u         
M_C_F_D_U41_M5         C_F_D_N567841 Q52 N116990 N116990 CMOSP  
+ L=.25u  
+ W=.93u         
M_C_F_D_U41_M6         C_F_D_N567841 Q52 0 0 CMOSN  
+ L=.43u  
+ W=.43u         
M_C_F_D_U118_M5         C_F_D_NDLSB18 C_F_D_N572074 N116990 N116990 CMOSP  
+ L=.186u  
+ W=.25u         
M_C_F_D_U118_M6         C_F_D_NDLSB18 C_F_D_N572074 C_F_D_U118_ND2 0 CMOSN  
+ L=.2u  
+ W=.232u         
M_C_F_D_U118_M2         C_F_D_U118_ND2 Q35 0 0 CMOSN  
+ L=.2u  
+ W=.232u         
M_C_F_D_U118_M4         C_F_D_NDLSB18 Q35 N116990 N116990 CMOSP  
+ L=.186u  
+ W=.25u         
M_C_F_D_U132_M5         C_F_D_NDLSB26 C_F_D_N573036 N116990 N116990 CMOSP  
+ L=.186u  
+ W=.25u         
M_C_F_D_U132_M6         C_F_D_NDLSB26 C_F_D_N573036 C_F_D_U132_ND2 0 CMOSN  
+ L=.2u  
+ W=.232u         
M_C_F_D_U132_M2         C_F_D_U132_ND2 Q51 0 0 CMOSN  
+ L=.2u  
+ W=.232u         
M_C_F_D_U132_M4         C_F_D_NDLSB26 Q51 N116990 N116990 CMOSP  
+ L=.186u  
+ W=.25u         
M_C_F_D_U34_M5         C_F_D_N568523 Q12 N116990 N116990 CMOSP  
+ L=.25u  
+ W=.93u         
M_C_F_D_U34_M6         C_F_D_N568523 Q12 0 0 CMOSN  
+ L=.43u  
+ W=.43u         
M_C_F_D_U137_M5         C_F_D_NDX2LSB X2 N116990 N116990 CMOSP  
+ L=.25u  
+ W=.93u         
M_C_F_D_U137_M6         C_F_D_NDX2LSB X2 0 0 CMOSN  
+ L=.43u  
+ W=.43u         
M_C_F_D_U94_M5         C_F_D_NDLSB13 C_F_D_N578534 N116990 N116990 CMOSP  
+ L=.186u  
+ W=.25u         
M_C_F_D_U94_M6         C_F_D_NDLSB13 C_F_D_N578534 C_F_D_U94_ND2 0 CMOSN  
+ L=.2u  
+ W=.232u         
M_C_F_D_U94_M2         C_F_D_U94_ND2 Q25 0 0 CMOSN  
+ L=.2u  
+ W=.232u         
M_C_F_D_U94_M4         C_F_D_NDLSB13 Q25 N116990 N116990 CMOSP  
+ L=.186u  
+ W=.25u         
M_C_F_D_U51_M5         C_F_D_ND2SB6 C_F_D_N568545 N116990 N116990 CMOSP  
+ L=.186u  
+ W=.25u         
M_C_F_D_U51_M6         C_F_D_ND2SB6 C_F_D_N568545 C_F_D_U51_ND2 0 CMOSN  
+ L=.2u  
+ W=.232u         
M_C_F_D_U51_M2         C_F_D_U51_ND2 Q22 0 0 CMOSN  
+ L=.2u  
+ W=.232u         
M_C_F_D_U51_M4         C_F_D_ND2SB6 Q22 N116990 N116990 CMOSP  
+ L=.186u  
+ W=.25u         
M_C_F_D_U89_M5         C_F_D_NDLSB7 C_F_D_N578674 N116990 N116990 CMOSP  
+ L=.186u  
+ W=.25u         
M_C_F_D_U89_M6         C_F_D_NDLSB7 C_F_D_N578674 C_F_D_U89_ND2 0 CMOSN  
+ L=.2u  
+ W=.232u         
M_C_F_D_U89_M2         C_F_D_U89_ND2 Q13 0 0 CMOSN  
+ L=.2u  
+ W=.232u         
M_C_F_D_U89_M4         C_F_D_NDLSB7 Q13 N116990 N116990 CMOSP  
+ L=.186u  
+ W=.25u         
M_C_F_D_U47_M5         C_F_D_ND2SB2 C_F_D_N568499 N116990 N116990 CMOSP  
+ L=.186u  
+ W=.25u         
M_C_F_D_U47_M6         C_F_D_ND2SB2 C_F_D_N568499 C_F_D_U47_ND2 0 CMOSN  
+ L=.2u  
+ W=.232u         
M_C_F_D_U47_M2         C_F_D_U47_ND2 Q6 0 0 CMOSN  
+ L=.2u  
+ W=.232u         
M_C_F_D_U47_M4         C_F_D_ND2SB2 Q6 N116990 N116990 CMOSP  
+ L=.186u  
+ W=.25u         
M_C_F_D_U72_M5         C_F_D_N578650 Q8 N116990 N116990 CMOSP  
+ L=.25u  
+ W=.93u         
M_C_F_D_U72_M6         C_F_D_N578650 Q8 0 0 CMOSN  
+ L=.43u  
+ W=.43u         
M_C_F_D_U17_M5         C_F_D_N565104 Q24 N116990 N116990 CMOSP  
+ L=.25u  
+ W=.93u         
M_C_F_D_U17_M6         C_F_D_N565104 Q24 0 0 CMOSN  
+ L=.43u  
+ W=.43u         
M_C_F_D_U113_M5         C_F_D_N573066 Q56 N116990 N116990 CMOSP  
+ L=.25u  
+ W=.93u         
M_C_F_D_U113_M6         C_F_D_N573066 Q56 0 0 CMOSN  
+ L=.43u  
+ W=.43u         
M_C_F_D_U100_M16         X2 C_F_D_NDLSB12 N116990 N116990 CMOSP  
+ L=.67u  
+ W=.68u         
M_C_F_D_U100_M5         X2 C_F_D_NDLSB16 N116990 N116990 CMOSP  
+ L=.67u  
+ W=.68u         
M_C_F_D_U100_M11         X2 C_F_D_NDLSB9 N116990 N116990 CMOSP  
+ L=.67u  
+ W=.68u         
M_C_F_D_U100_M9         X2 C_F_D_NDLSB14 N116990 N116990 CMOSP  
+ L=.67u  
+ W=.68u         
M_C_F_D_U100_M1         X2 C_F_D_NDLSB9 C_F_D_U100_ND2 0 CMOSN  
+ L=.18u  
+ W=2.55u         
M_C_F_D_U100_M6         C_F_D_U100_ND3 C_F_D_NDLSB11 C_F_D_U100_ND4 0 CMOSN  
+ L=.18u  
+ W=2.55u         
M_C_F_D_U100_M7         C_F_D_U100_ND4 C_F_D_NDLSB12 C_F_D_U100_ND5 0 CMOSN  
+ L=.18u  
+ W=2.55u         
M_C_F_D_U100_M12         X2 C_F_D_NDLSB13 N116990 N116990 CMOSP  
+ L=.67u  
+ W=.68u         
M_C_F_D_U100_M2         C_F_D_U100_ND2 C_F_D_NDLSB10 C_F_D_U100_ND3 0 CMOSN  
+ L=.18u  
+ W=2.55u         
M_C_F_D_U100_M13         C_F_D_U100_ND6 C_F_D_NDLSB14 C_F_D_U100_ND7 0 CMOSN  
+ L=.18u  
+ W=2.55u         
M_C_F_D_U100_M10         C_F_D_U100_ND5 C_F_D_NDLSB13 C_F_D_U100_ND6 0 CMOSN  
+ L=.18u  
+ W=2.55u         
[...]

(C_F_D_NDLSB2)    3.3000              (C_F_D_NDLSB3)    3.3000                  

(C_F_D_NDLSB4)    3.3000              (C_F_D_NDLSB5)    3.3000                  

(C_F_D_NDLSB6)    3.3000              (C_F_D_NDLSB7)    3.3000                  

(C_F_D_NDLSB8)    3.3000              (C_F_D_NDLSB9)    3.3000                  

(C_F_D_U6_ND2) 1.057E-06              (C_F_D_U7_ND2) 1.052E-06                  

(C_F_D_U8_ND2) 1.052E-06              (C_F_D_U9_ND2) 1.052E-06                  

(C_F_C10_NDNEG)    3.1319             (C_F_C10_NDPOS) 18.56E-06                 

(C_F_C11_NDNEG)    3.1319             (C_F_C11_NDPOS) 18.54E-06                 

(C_F_C12_NDNEG)    3.1319             (C_F_C12_NDPOS) 18.52E-06                 

(C_F_C13_NDNEG)    3.1319             (C_F_C13_NDPOS) 18.51E-06                 

(C_F_C14_NDNEG)    3.1319             (C_F_C14_NDPOS) 18.49E-06                 

(C_F_C15_NDNEG)    3.1319             (C_F_C15_NDPOS) 18.48E-06                 

(C_F_C16_NDNEG)    3.1319             (C_F_C16_NDPOS) 18.47E-06                 

(C_F_C17_NDNEG)    3.1319             (C_F_C17_NDPOS) 18.46E-06                 

(C_F_C18_NDNEG)    3.1319             (C_F_C18_NDPOS) 18.45E-06                 

(C_F_C19_NDNEG)    3.1319             (C_F_C19_NDPOS) 18.44E-06                 

(C_F_C1_NDBIAS) 18.04E-06             (C_F_C20_NDNEG)    3.1319                 

(C_F_C20_NDPOS) 18.43E-06             (C_F_C21_NDNEG)    3.1319                 

(C_F_C21_NDPOS) 18.42E-06             (C_F_C22_NDNEG)    3.1319                 

(C_F_C22_NDPOS) 18.41E-06             (C_F_C23_NDNEG)    3.1319                 

(C_F_C23_NDPOS) 18.40E-06             (C_F_C24_NDNEG)    3.1319                 

(C_F_C24_NDPOS) 18.40E-06             (C_F_C25_NDNEG)    3.1319                 

(C_F_C25_NDPOS) 18.39E-06             (C_F_C26_NDNEG)    3.1319                 

(C_F_C26_NDPOS) 18.38E-06             (C_F_C27_NDNEG)    3.1319                 

(C_F_C27_NDPOS) 18.38E-06             (C_F_C28_NDNEG)    3.1319                 

(C_F_C28_NDPOS) 18.37E-06             (C_F_C29_NDNEG)    3.1319                 

(C_F_C29_NDPOS) 18.37E-06             (C_F_C2_NDBIAS) 18.04E-06                 

(C_F_C30_NDNEG)    3.1319             (C_F_C30_NDPOS) 18.36E-06                 

(C_F_C31_NDNEG)    3.1319             (C_F_C31_NDPOS) 18.36E-06                 

(C_F_C32_NDNEG)    3.1319             (C_F_C32_NDPOS) 18.35E-06                 

(C_F_C33_NDNEG)    3.1319             (C_F_C33_NDPOS) 18.35E-06                 

(C_F_C34_NDNEG)    3.1319             (C_F_C34_NDPOS) 18.35E-06                 

(C_F_C35_NDNEG)    3.1319             (C_F_C35_NDPOS) 18.34E-06                 

(C_F_C36_NDNEG)    3.1319             (C_F_C36_NDPOS) 18.34E-06                 

(C_F_C37_NDNEG)    3.1319             (C_F_C37_NDPOS) 18.34E-06                 

(C_F_C38_NDNEG)    3.1319             (C_F_C38_NDPOS) 18.34E-06                 

(C_F_C39_NDNEG)    3.1319             (C_F_C39_NDPOS) 18.33E-06                 

(C_F_C3_NDBIAS) 18.04E-06             (C_F_C40_NDNEG)    3.1319                 

(C_F_C40_NDPOS) 18.33E-06             (C_F_C41_NDNEG)    3.1319                 

(C_F_C41_NDPOS) 18.33E-06             (C_F_C42_NDNEG)    3.1319                 

(C_F_C42_NDPOS) 18.33E-06             (C_F_C43_NDNEG)    3.1319                 

(C_F_C43_NDPOS) 18.32E-06             (C_F_C44_NDNEG)    3.1319                 

(C_F_C44_NDPOS) 18.32E-06             (C_F_C45_NDNEG)    3.1319                 

(C_F_C45_NDPOS) 18.32E-06             (C_F_C46_NDNEG)    3.1319                 

(C_F_C46_NDPOS) 18.32E-06             (C_F_C47_NDNEG)    3.1319                 

(C_F_C47_NDPOS) 18.32E-06             (C_F_C48_NDNEG)    3.1319                 

(C_F_C48_NDPOS) 18.32E-06             (C_F_C49_NDNEG)    3.1319                 

(C_F_C49_NDPOS) 18.32E-06             (C_F_C4_NDBIAS) 18.04E-06                 

(C_F_C50_NDNEG)    3.1319             (C_F_C50_NDPOS) 18.32E-06                 

(C_F_C51_NDNEG)    3.1319             (C_F_C51_NDPOS) 18.32E-06                 

(C_F_C52_NDNEG)    3.1319             (C_F_C52_NDPOS) 18.31E-06                 

(C_F_C53_NDNEG)    3.1319             (C_F_C53_NDPOS) 18.31E-06                 

(C_F_C54_NDNEG)    3.1319             (C_F_C54_NDPOS) 18.31E-06                 

(C_F_C55_NDNEG)    3.1319             (C_F_C55_NDPOS) 18.31E-06                 

(C_F_C56_NDNEG)    3.1319             (C_F_C56_NDPOS) 18.31E-06                 

(C_F_C57_NDNEG)    3.1319             (C_F_C57_NDPOS) 18.31E-06                 

(C_F_C58_NDNEG)    3.1319             (C_F_C58_NDPOS) 18.31E-06                 

(C_F_C59_NDNEG)    3.1319             (C_F_C59_NDPOS) 18.31E-06                 

(C_F_C5_NDBIAS) 18.04E-06             (C_F_C60_NDNEG)    3.1319                 

(C_F_C60_NDPOS) 18.31E-06             (C_F_C61_NDNEG)    3.1319                 

(C_F_C61_NDPOS) 18.31E-06             (C_F_C62_NDNEG)    3.1319                 

(C_F_C62_NDPOS) 18.31E-06             (C_F_C63_NDNEG)    3.1319                 

(C_F_C63_NDPOS) 18.31E-06             (C_F_C6_NDBIAS) 18.04E-06                 

(C_F_C7_NDBIAS) 18.04E-06             (C_F_C8_NDBIAS) 18.04E-06                 

(C_F_C9_NDBIAS) 18.04E-06             (C_F_D_N259339) 111.6E-09                 

(C_F_D_N259543) 111.6E-09             (C_F_D_N259565) 111.6E-09                 

(C_F_D_N259605) 111.6E-09             (C_F_D_N564920) 111.6E-09                 

(C_F_D_N564924) 111.6E-09             (C_F_D_N565082) 111.6E-09                 

(C_F_D_N565094) 111.6E-09             (C_F_D_N565104) 111.6E-09                 

(C_F_D_N565120) 111.6E-09             (C_F_D_N565130) 111.6E-09                 

(C_F_D_N565340) 68.88E-09             (C_F_D_N565498)    3.3000                 

(C_F_D_N567401) 68.88E-09             (C_F_D_N567419)    3.3000                 

(C_F_D_N567801) 111.6E-09             (C_F_D_N567811) 111.6E-09                 

(C_F_D_N567821) 111.6E-09             (C_F_D_N567831) 111.6E-09                 

(C_F_D_N567841) 111.6E-09             (C_F_D_N567851) 111.6E-09                 

(C_F_D_N567861) 111.6E-09             (C_F_D_N568485)    3.3000                 

(C_F_D_N568499) 111.6E-09             (C_F_D_N568511) 111.6E-09                 

(C_F_D_N568523) 111.6E-09             (C_F_D_N568535) 111.6E-09                 

(C_F_D_N568545) 111.6E-09             (C_F_D_N568555) 111.6E-09                 

(C_F_D_N568565) 111.6E-09             (C_F_D_N569141) 111.6E-09                 

(C_F_D_N572064) 111.6E-09             (C_F_D_N572074) 111.6E-09                 

(C_F_D_N572104) 111.6E-09             (C_F_D_N572124) 111.6E-09                 

(C_F_D_N572134) 111.6E-09             (C_F_D_N572144) 111.6E-09                 

(C_F_D_N572160) 111.6E-09             (C_F_D_N573020) 111.6E-09                 

(C_F_D_N573036) 111.6E-09             (C_F_D_N573046) 111.6E-09                 

(C_F_D_N573056) 111.6E-09             (C_F_D_N573066) 111.6E-09                 

(C_F_D_N573076) 111.6E-09             (C_F_D_N573086) 111.6E-09                 

(C_F_D_N573096) 111.6E-09             (C_F_D_N578480) 111.6E-09                 

(C_F_D_N578504) 111.6E-09             (C_F_D_N578514) 111.6E-09                 

(C_F_D_N578524) 111.6E-09             (C_F_D_N578534) 111.6E-09                 

(C_F_D_N578552) 111.6E-09             (C_F_D_N578562) 111.6E-09                 

(C_F_D_N578578) 111.6E-09             (C_F_D_N578608) 111.6E-09                 

(C_F_D_N578622) 111.6E-09             (C_F_D_N578636) 111.6E-09                 

(C_F_D_N578650) 111.6E-09             (C_F_D_N578662) 111.6E-09                 

(C_F_D_N578674) 111.6E-09             (C_F_D_N578686) 111.6E-09                 

(C_F_D_N793529) 111.6E-09             (C_F_D_N941987) 117.3E-09                 

(C_F_D_ND2SB10)    3.3000             (C_F_D_ND2SB11)    3.3000                 

(C_F_D_ND2SB12)    3.3000             (C_F_D_ND2SB13)    3.3000                 

(C_F_D_ND2SB14)    3.3000             (C_F_D_ND2SB15)    3.3000                 

(C_F_D_ND2SB16)    3.3000             (C_F_D_NDLSB10)    3.3000                 

(C_F_D_NDLSB11)    3.3000             (C_F_D_NDLSB12)    3.3000                 

(C_F_D_NDLSB13)    3.3000             (C_F_D_NDLSB14)    3.3000                 

(C_F_D_NDLSB15)    3.3000             (C_F_D_NDLSB16)    3.3000                 

(C_F_D_NDLSB17)    3.3000             (C_F_D_NDLSB18)    3.3000                 

(C_F_D_NDLSB19)    3.3000             (C_F_D_NDLSB20)    3.3000                 

(C_F_D_NDLSB21)    3.3000             (C_F_D_NDLSB22)    3.3000                 

(C_F_D_NDLSB23)    3.3000             (C_F_D_NDLSB24)    3.3000                 

(C_F_D_NDLSB25)    3.3000             (C_F_D_NDLSB26)    3.3000                 

(C_F_D_NDLSB27)    3.3000             (C_F_D_NDLSB28)    3.3000                 

(C_F_D_NDLSB29)    3.3000             (C_F_D_NDLSB30)    3.3000                 

(C_F_D_NDLSB31)    3.3000             (C_F_D_NDLSB32)    3.3000                 

(C_F_D_NDX1LSB) 68.88E-09             (C_F_D_NDX2LSB)    3.3000                 

(C_F_D_NDX3LSB)    3.3000             (C_F_D_NDX4LSB)    3.3000                 

(C_F_D_U10_ND2) 1.052E-06             (C_F_D_U12_ND2) 1.236E-06                 

(C_F_D_U12_ND3) 824.3E-09             (C_F_D_U12_ND4) 412.1E-09                 

(C_F_D_U13_ND2) 913.2E-09             (C_F_D_U13_ND3) 782.7E-09                 

(C_F_D_U13_ND4) 652.3E-09             (C_F_D_U13_ND5) 521.8E-09                 

(C_F_D_U13_ND6) 391.4E-09             (C_F_D_U13_ND7) 260.9E-09                 

(C_F_D_U13_ND8) 130.5E-09             (C_F_D_U24_ND2) 1.052E-06                 

(C_F_D_U25_ND2) 1.052E-06             (C_F_D_U26_ND2) 1.052E-06                 

(C_F_D_U27_ND2) 1.052E-06             (C_F_D_U28_ND2) 1.052E-06                 

(C_F_D_U29_ND2) 1.052E-06             (C_F_D_U30_ND2) 1.052E-06                 

(C_F_D_U47_ND2) 1.052E-06             (C_F_D_U48_ND2) 1.052E-06                 

(C_F_D_U49_ND2) 1.052E-06             (C_F_D_U50_ND2) 1.052E-06                 

(C_F_D_U51_ND2) 1.052E-06             (C_F_D_U52_ND2) 1.052E-06                 

(C_F_D_U53_ND2) 1.052E-06             (C_F_D_U54_ND2) 1.052E-06                 

(C_F_D_U55_ND2) 1.052E-06             (C_F_D_U56_ND2) 1.052E-06                 

(C_F_D_U57_ND2) 1.052E-06             (C_F_D_U58_ND2) 1.052E-06                 

(C_F_D_U59_ND2) 1.052E-06             (C_F_D_U60_ND2) 1.052E-06                 

(C_F_D_U61_ND2) 1.052E-06             (C_F_D_U62_ND2)    2.7916                 

(C_F_D_U63_ND2) 913.2E-09             (C_F_D_U63_ND3) 782.7E-09                 

(C_F_D_U63_ND4) 652.3E-09             (C_F_D_U63_ND5) 521.8E-09                 

(C_F_D_U63_ND6) 391.4E-09             (C_F_D_U63_ND7) 260.9E-09                 

(C_F_D_U63_ND8) 130.5E-09             (C_F_D_U64_ND2) 102.7E-09                 

(C_F_D_U64_ND3) 87.99E-09             (C_F_D_U64_ND4) 73.33E-09                 

(C_F_D_U64_ND5) 58.66E-09             (C_F_D_U64_ND6) 44.00E-09                 

(C_F_D_U64_ND7) 29.33E-09             (C_F_D_U64_ND8) 14.67E-09                 

(C_F_D_U84_ND2) 1.052E-06             (C_F_D_U85_ND2) 1.052E-06                 

(C_F_D_U86_ND2) 1.052E-06             (C_F_D_U87_ND2) 1.052E-06                 

(C_F_D_U88_ND2) 1.052E-06             (C_F_D_U89_ND2) 1.052E-06                 

(C_F_D_U90_ND2) 1.052E-06             (C_F_D_U91_ND2) 1.052E-06                 

(C_F_D_U92_ND2) 1.052E-06             (C_F_D_U93_ND2) 1.052E-06                 

(C_F_D_U94_ND2) 1.052E-06             (C_F_D_U95_ND2) 1.052E-06                 

(C_F_D_U96_ND2) 1.052E-06             (C_F_D_U97_ND2) 1.052E-06                 

(C_F_D_U98_ND2) 1.052E-06             (C_F_D_U99_ND2) 913.2E-09                 

(C_F_D_U99_ND3) 782.7E-09             (C_F_D_U99_ND4) 652.3E-09                 

(C_F_D_U99_ND5) 521.8E-09             (C_F_D_U99_ND6) 391.4E-09                 

(C_F_D_U99_ND7) 260.9E-09             (C_F_D_U99_ND8) 130.5E-09                 

(C_F_R1_N62128)    3.3000             (C_F_R1_N62152) 604.2E-09                 

(C_F_R2_N62128)    3.3000             (C_F_R2_N62152) 604.2E-09                 

(C_F_R3_N62128)    3.3000             (C_F_R3_N62152) 604.2E-09                 

(C_F_R4_N62128)    3.3000             (C_F_R4_N62152) 604.2E-09                 

(C_F_R5_N62128)    3.3000             (C_F_R5_N62152) 604.2E-09                 

(C_F_R6_N62128)    3.3000             (C_F_R6_N62152) 810.4E-09                 

(C_F_C10_NDBIAS) 18.04E-06            (C_F_C11_NDBIAS) 18.04E-06                

(C_F_C12_NDBIAS) 18.04E-06            (C_F_C13_NDBIAS) 18.04E-06                

(C_F_C14_NDBIAS) 18.04E-06            (C_F_C15_NDBIAS) 18.04E-06                

(C_F_C16_NDBIAS) 18.04E-06            (C_F_C17_NDBIAS) 18.04E-06                

(C_F_C18_NDBIAS) 18.04E-06            (C_F_C19_NDBIAS) 18.04E-06                

(C_F_C20_NDBIAS) 18.04E-06            (C_F_C21_NDBIAS) 18.04E-06                

(C_F_C22_NDBIAS) 18.04E-06            (C_F_C23_NDBIAS) 18.04E-06                

(C_F_C24_NDBIAS) 18.04E-06            (C_F_C25_NDBIAS) 18.04E-06                

(C_F_C26_NDBIAS) 18.04E-06            (C_F_C27_NDBIAS) 18.04E-06                

(C_F_C28_NDBIAS) 18.04E-06            (C_F_C29_NDBIAS) 18.04E-06                

(C_F_C30_NDBIAS) 18.04E-06            (C_F_C31_NDBIAS) 18.04E-06                

(C_F_C32_NDBIAS) 18.04E-06            (C_F_C33_NDBIAS) 18.04E-06                

(C_F_C34_NDBIAS) 18.04E-06            (C_F_C35_NDBIAS) 18.04E-06                

(C_F_C36_NDBIAS) 18.04E-06            (C_F_C37_NDBIAS) 18.04E-06                

(C_F_C38_NDBIAS) 18.04E-06            (C_F_C39_NDBIAS) 18.04E-06                

(C_F_C40_NDBIAS) 18.04E-06            (C_F_C41_NDBIAS) 18.04E-06                

(C_F_C42_NDBIAS) 18.04E-06            (C_F_C43_NDBIAS) 18.04E-06                

(C_F_C44_NDBIAS) 18.04E-06            (C_F_C45_NDBIAS) 18.04E-06                

(C_F_C46_NDBIAS) 18.04E-06            (C_F_C47_NDBIAS) 18.04E-06                

(C_F_C48_NDBIAS) 18.04E-06            (C_F_C49_NDBIAS) 18.04E-06                

(C_F_C50_NDBIAS) 18.04E-06            (C_F_C51_NDBIAS) 18.04E-06                

(C_F_C52_NDBIAS) 18.04E-06            (C_F_C53_NDBIAS) 18.04E-06                

(C_F_C54_NDBIAS) 18.04E-06            (C_F_C55_NDBIAS) 18.04E-06                

(C_F_C56_NDBIAS) 18.04E-06            (C_F_C57_NDBIAS) 18.04E-06                

(C_F_C58_NDBIAS) 18.04E-06            (C_F_C59_NDBIAS) 18.04E-06                

(C_F_C60_NDBIAS) 18.04E-06            (C_F_C61_NDBIAS) 18.04E-06                

(C_F_C62_NDBIAS) 18.04E-06            (C_F_C63_NDBIAS) 18.04E-06                

(C_F_D_U100_ND2) 102.7E-09            (C_F_D_U100_ND3) 87.99E-09                

(C_F_D_U100_ND4) 73.33E-09            (C_F_D_U100_ND5) 58.66E-09                

(C_F_D_U100_ND6) 44.00E-09            (C_F_D_U100_ND7) 29.33E-09                

(C_F_D_U100_ND8) 14.67E-09            (C_F_D_U117_ND2) 1.052E-06                

(C_F_D_U118_ND2) 1.052E-06            (C_F_D_U119_ND2) 1.052E-06                

(C_F_D_U120_ND2) 1.052E-06            (C_F_D_U121_ND2) 1.052E-06                

(C_F_D_U122_ND2) 1.052E-06            (C_F_D_U123_ND2) 1.052E-06                

(C_F_D_U124_ND2) 1.052E-06            (C_F_D_U125_ND2) 1.052E-06                

(C_F_D_U126_ND2) 1.052E-06            (C_F_D_U127_ND2) 1.052E-06                

(C_F_D_U129_ND2) 1.052E-06            (C_F_D_U130_ND2) 1.052E-06                

(C_F_D_U131_ND2) 1.052E-06            (C_F_D_U132_ND2) 1.052E-06                

(C_F_D_U133_ND2) 1.052E-06            (C_F_D_U134_ND2) 102.7E-09                

(C_F_D_U134_ND3) 87.99E-09            (C_F_D_U134_ND4) 73.33E-09                

(C_F_D_U134_ND5) 58.66E-09            (C_F_D_U134_ND6) 44.00E-09                

(C_F_D_U134_ND7) 29.33E-09            (C_F_D_U134_ND8) 14.67E-09                

(C_F_D_U135_ND2) 102.7E-09            (C_F_D_U135_ND3) 87.99E-09                

(C_F_D_U135_ND4) 73.33E-09            (C_F_D_U135_ND5) 58.66E-09                

(C_F_D_U135_ND6) 44.00E-09            (C_F_D_U135_ND7) 29.33E-09                

(C_F_D_U135_ND8) 14.67E-09            (C_F_D_U140_ND2) 1.236E-06                

(C_F_D_U140_ND3) 824.3E-09            (C_F_D_U140_ND4) 412.1E-09                

(C_1R_DIV_N02264)    1.1175           (C_1R_DIV_N03019)    2.4508               

(C_1R_DIV_N03082)    2.1016           (C_1R_DIV_N03146)    1.7524               

(C_1R_DIV_N03539)    1.4032           (C_1R_DIV_N17274)     .8317               

(C_2R_DIV_N02264)    1.1175           (C_2R_DIV_N03019)    2.4508               

(C_2R_DIV_N03082)    2.1016           (C_2R_DIV_N03146)    1.7524               

(C_2R_DIV_N03539)    1.4032           (C_2R_DIV_N17274)     .8317               

(C_1R_DIV_N169051)     .8000          (C_2R_DIV_N169051)     .8000              

(C_F_R1_NAND1_ND2)    2.8444          (C_F_R1_NAND1_ND3)     .0680              

(C_F_R1_NAND2_ND2) 1.057E-06          (C_F_R1_NAND3_ND2)    2.7916              

(C_F_R1_NAND4_ND2)     .0973          (C_F_R1_NAND5_ND2) 145.5E-06              

(C_F_R1_NAND6_ND2) 302.1E-09          (C_F_R2_NAND1_ND2)    2.8444              

(C_F_R2_NAND1_ND3)     .0680          (C_F_R2_NAND2_ND2) 1.057E-06              

(C_F_R2_NAND3_ND2)    2.7916          (C_F_R2_NAND4_ND2)     .0973              

(C_F_R2_NAND5_ND2) 145.5E-06          (C_F_R2_NAND6_ND2) 302.1E-09              

(C_F_R3_NAND1_ND2)    2.8444          (C_F_R3_NAND1_ND3)     .0680              

(C_F_R3_NAND2_ND2) 1.057E-06          (C_F_R3_NAND3_ND2)    2.7916              

(C_F_R3_NAND4_ND2)     .0973          (C_F_R3_NAND5_ND2) 145.5E-06              

(C_F_R3_NAND6_ND2) 302.1E-09          (C_F_R4_NAND1_ND2)    2.8444              

(C_F_R4_NAND1_ND3)     .0680          (C_F_R4_NAND2_ND2) 1.057E-06              

(C_F_R4_NAND3_ND2)    2.7916          (C_F_R4_NAND4_ND2)     .0973              

(C_F_R4_NAND5_ND2) 145.5E-06          (C_F_R4_NAND6_ND2) 302.1E-09              

(C_F_R5_NAND1_ND2)    2.8444          (C_F_R5_NAND1_ND3)     .0680              

(C_F_R5_NAND2_ND2) 1.057E-06          (C_F_R5_NAND3_ND2)    2.7916              

(C_F_R5_NAND4_ND2)     .0973          (C_F_R5_NAND5_ND2) 145.5E-06              

(C_F_R5_NAND6_ND2) 302.1E-09          (C_F_R6_NAND1_ND2)    2.8444              

(C_F_R6_NAND1_ND3)     .0680          (C_F_R6_NAND2_ND2) 1.057E-06              

(C_F_R6_NAND3_ND2)    2.7916          (C_F_R6_NAND4_ND2)    2.6496              

(C_F_R6_NAND5_ND2)     .0973          (C_F_R6_NAND6_ND2) 404.2E-09          




    VOLTAGE SOURCE CURRENTS
    NAME         CURRENT

    V_Clock      0.000E+00
    V_C_1R_DIV_V1   3.175E-06
    V_C_2R_DIV_V1   3.175E-06
    V_VBIAS      0.000E+00
    V_VDD       -9.767E-03
    V_VREF      -6.349E-06
    V_VA         0.000E+00

    TOTAL POWER DISSIPATION   3.22E-02  WATTS



          JOB CONCLUDED

**** 05/16/10 12:28:36 ******* PSpice 16.0.0 (July 2006) ****** ID# 0 ********

 ** Profile: "PRUEBA-transient"  [ D:\Documents\TESIS\fiocs\Design\I-FLASH-01\OrCAD\I-FLASH-6BITS\i-flash-6bits-pspicefiles\prueba\tr


 ****     JOB STATISTICS SUMMARY


******************************************************************************



  Total job time (using Solver 1)   =       15.82
