
**** 04/11/10 19:06:15 ******* PSpice 16.0.0 (July 2006) ****** ID# 0 ********

 ** Profile: "PRUEBA-transient"  [ D:\Documents\TESIS\fiocs\Design\I-FLASH-01\OrCAD\I-FLASH-6BITS\i-flash-6bits-pspicefiles\prueba\tr


 ****     CIRCUIT DESCRIPTION


******************************************************************************




** Creating circuit file "transient.cir" 
** WARNING: THIS AUTOMATICALLY GENERATED FILE MAY BE OVERWRITTEN BY SUBSEQUENT SIMULATIONS

*Libraries: 
* Profile Libraries :
* Local Libraries :
.LIB "../../../i-flash-6bits-pspicefiles/i-flash-6bits.lib" 
* From [PSPICE NETLIST] section of C:\OrCAD\OrCAD_16.0\tools\PSpice\PSpice.ini file:
.lib "nom.lib" 

*Analysis directives: 
.TRAN  0 15n 0 1p 
.OPTIONS NODE
.OPTIONS ITL1= 300
.OPTIONS ITL2= 100
.PROBE V(alias(*)) I(alias(*)) W(alias(*)) D(alias(*)) NOISE(alias(*)) 
.INC "..\PRUEBA.net" 



**** INCLUDING PRUEBA.net ****
* source I-FLASH-6BITS
R_R6         LSB N116990  100k  
R_R7         N-MSB N116990  100k  
V_Clock         N116976 0  
+PULSE 0 3 .4u 0.05u 0.05u .4u 1u
R_R8         N-5SB N116990  100k  
M_CONV_FLASH_C38_M4         CONV_FLASH_C38_ND+ CONV_FLASH_C38_ND- N116990
+  N116990 CMOSP  
+ L=.2u  
+ W=.6u         
M_CONV_FLASH_C38_M5         CONV_FLASH_C38_NDBIAS N117027 0 0 CMOSN  
+ L=.2u  
+ W=.6u         
M_CONV_FLASH_C38_M6         Q38 CONV_FLASH_C38_ND+ N116990 N116990 CMOSP  
+ L=.2u  
+ W=.8u         
M_CONV_FLASH_C38_M7         Q38 N117027 0 0 CMOSN  
+ L=.2u  
+ W=.4u         
M_CONV_FLASH_C38_M1         CONV_FLASH_C38_ND- N117007 CONV_FLASH_C38_NDBIAS 0
+  CMOSN  
+ L=.2u  
+ W=.4u         
M_CONV_FLASH_C38_M2         CONV_FLASH_C38_ND+ CONV_N117508
+  CONV_FLASH_C38_NDBIAS 0 CMOSN  
+ L=.2u  
+ W=.4u         
M_CONV_FLASH_C38_M3         CONV_FLASH_C38_ND- CONV_FLASH_C38_ND- N116990
+  N116990 CMOSP  
+ L=.2u  
+ W=.6u         
M_CONV_FLASH_C5_M4         CONV_FLASH_C5_ND+ CONV_FLASH_C5_ND- N116990 N116990
+  CMOSP  
+ L=.2u  
+ W=.6u         
M_CONV_FLASH_C5_M5         CONV_FLASH_C5_NDBIAS N117027 0 0 CMOSN  
+ L=.2u  
+ W=.6u         
M_CONV_FLASH_C5_M6         Q5 CONV_FLASH_C5_ND+ N116990 N116990 CMOSP  
+ L=.2u  
+ W=.8u         
M_CONV_FLASH_C5_M7         Q5 N117027 0 0 CMOSN  
+ L=.2u  
+ W=.4u         
M_CONV_FLASH_C5_M1         CONV_FLASH_C5_ND- N117007 CONV_FLASH_C5_NDBIAS 0
+  CMOSN  
+ L=.2u  
+ W=.4u         
M_CONV_FLASH_C5_M2         CONV_FLASH_C5_ND+ CONV_N117574 CONV_FLASH_C5_NDBIAS
+  0 CMOSN  
+ L=.2u  
+ W=.4u         
M_CONV_FLASH_C5_M3         CONV_FLASH_C5_ND- CONV_FLASH_C5_ND- N116990 N116990
+  CMOSP  
+ L=.2u  
+ W=.6u         
M_CONV_FLASH_C25_M4         CONV_FLASH_C25_ND+ CONV_FLASH_C25_ND- N116990
+  N116990 CMOSP  
+ L=.2u  
+ W=.6u         
M_CONV_FLASH_C25_M5         CONV_FLASH_C25_NDBIAS N117027 0 0 CMOSN  
+ L=.2u  
+ W=.6u         
M_CONV_FLASH_C25_M6         Q25 CONV_FLASH_C25_ND+ N116990 N116990 CMOSP  
+ L=.2u  
+ W=.8u         
M_CONV_FLASH_C25_M7         Q25 N117027 0 0 CMOSN  
+ L=.2u  
+ W=.4u         
M_CONV_FLASH_C25_M1         CONV_FLASH_C25_ND- N117007 CONV_FLASH_C25_NDBIAS 0
+  CMOSN  
+ L=.2u  
+ W=.4u         
M_CONV_FLASH_C25_M2         CONV_FLASH_C25_ND+ CONV_N117534
+  CONV_FLASH_C25_NDBIAS 0 CMOSN  
+ L=.2u  
+ W=.4u         
M_CONV_FLASH_C25_M3         CONV_FLASH_C25_ND- CONV_FLASH_C25_ND- N116990
+  N116990 CMOSP  
+ L=.2u  
+ W=.6u         
M_CONV_FLASH_C31_M4         CONV_FLASH_C31_ND+ CONV_FLASH_C31_ND- N116990
+  N116990 CMOSP  
+ L=.2u  
+ W=.6u         
M_CONV_FLASH_C31_M5         CONV_FLASH_C31_NDBIAS N117027 0 0 CMOSN  
+ L=.2u  
+ W=.6u         
M_CONV_FLASH_C31_M6         Q31 CONV_FLASH_C31_ND+ N116990 N116990 CMOSP  
+ L=.2u  
+ W=.8u         
M_CONV_FLASH_C31_M7         Q31 N117027 0 0 CMOSN  
+ L=.2u  
+ W=.4u         
M_CONV_FLASH_C31_M1         CONV_FLASH_C31_ND- N117007 CONV_FLASH_C31_NDBIAS 0
+  CMOSN  
+ L=.2u  
+ W=.4u         
M_CONV_FLASH_C31_M2         CONV_FLASH_C31_ND+ CONV_N117522
+  CONV_FLASH_C31_NDBIAS 0 CMOSN  
+ L=.2u  
+ W=.4u         
M_CONV_FLASH_C31_M3         CONV_FLASH_C31_ND- CONV_FLASH_C31_ND- N116990
+  N116990 CMOSP  
+ L=.2u  
+ W=.6u         
M_CONV_FLASH_C8_M4         CONV_FLASH_C8_ND+ CONV_FLASH_C8_ND- N116990 N116990
+  CMOSP  
+ L=.2u  
+ W=.6u         
M_CONV_FLASH_C8_M5         CONV_FLASH_C8_NDBIAS N117027 0 0 CMOSN  
+ L=.2u  
+ W=.6u         
M_CONV_FLASH_C8_M6         Q8 CONV_FLASH_C8_ND+ N116990 N116990 CMOSP  
+ L=.2u  
+ W=.8u         
M_CONV_FLASH_C8_M7         Q8 N117027 0 0 CMOSN  
+ L=.2u  
+ W=.4u         
M_CONV_FLASH_C8_M1         CONV_FLASH_C8_ND- N117007 CONV_FLASH_C8_NDBIAS 0
+  CMOSN  
+ L=.2u  
+ W=.4u         
M_CONV_FLASH_C8_M2         CONV_FLASH_C8_ND+ CONV_N117576 CONV_FLASH_C8_NDBIAS
+  0 CMOSN  
+ L=.2u  
+ W=.4u         
M_CONV_FLASH_C8_M3         CONV_FLASH_C8_ND- CONV_FLASH_C8_ND- N116990 N116990
+  CMOSP  
+ L=.2u  
+ W=.6u         
M_CONV_FLASH_C19_M4         CONV_FLASH_C19_ND+ CONV_FLASH_C19_ND- N116990
+  N116990 CMOSP  
+ L=.2u  
+ W=.6u         
M_CONV_FLASH_C19_M5         CONV_FLASH_C19_NDBIAS N117027 0 0 CMOSN  
+ L=.2u  
+ W=.6u         
M_CONV_FLASH_C19_M6         Q19 CONV_FLASH_C19_ND+ N116990 N116990 CMOSP  
+ L=.2u  
+ W=.8u         
M_CONV_FLASH_C19_M7         Q19 N117027 0 0 CMOSN  
+ L=.2u  
+ W=.4u         
M_CONV_FLASH_C19_M1         CONV_FLASH_C19_ND- N117007 CONV_FLASH_C19_NDBIAS 0
+  CMOSN  
+ L=.2u  
+ W=.4u         
M_CONV_FLASH_C19_M2         CONV_FLASH_C19_ND+ CONV_N117546
+  CONV_FLASH_C19_NDBIAS 0 CMOSN  
+ L=.2u  
+ W=.4u         
M_CONV_FLASH_C19_M3         CONV_FLASH_C19_ND- CONV_FLASH_C19_ND- N116990
+  N116990 CMOSP  
+ L=.2u  
+ W=.6u         
M_CONV_FLASH_C2_M4         CONV_FLASH_C2_ND+ CONV_FLASH_C2_ND- N116990 N116990
+  CMOSP  
+ L=.2u  
+ W=.6u         
M_CONV_FLASH_C2_M5         CONV_FLASH_C2_NDBIAS N117027 0 0 CMOSN  
+ L=.2u  
+ W=.6u         
M_CONV_FLASH_C2_M6         Q2 CONV_FLASH_C2_ND+ N116990 N116990 CMOSP  
+ L=.2u  
+ W=.8u         
M_CONV_FLASH_C2_M7         Q2 N117027 0 0 CMOSN  
+ L=.2u  
+ W=.4u         
M_CONV_FLASH_C2_M1         CONV_FLASH_C2_ND- N117007 CONV_FLASH_C2_NDBIAS 0
+  CMOSN  
+ L=.2u  
+ W=.4u         
M_CONV_FLASH_C2_M2         CONV_FLASH_C2_ND+ CONV_N117564 CONV_FLASH_C2_NDBIAS
+  0 CMOSN  
+ L=.2u  
+ W=.4u         
M_CONV_FLASH_C2_M3         CONV_FLASH_C2_ND- CONV_FLASH_C2_ND- N116990 N116990
+  CMOSP  
+ L=.2u  
+ W=.6u         
M_CONV_FLASH_C46_M4         CONV_FLASH_C46_ND+ CONV_FLASH_C46_ND- N116990
+  N116990 CMOSP  
+ L=.2u  
+ W=.6u         
M_CONV_FLASH_C46_M5         CONV_FLASH_C46_NDBIAS N117027 0 0 CMOSN  
+ L=.2u  
+ W=.6u         
M_CONV_FLASH_C46_M6         Q46 CONV_FLASH_C46_ND+ N116990 N116990 CMOSP  
+ L=.2u  
+ W=.8u         
M_CONV_FLASH_C46_M7         Q46 N117027 0 0 CMOSN  
+ L=.2u  
+ W=.4u         
M_CONV_FLASH_C46_M1         CONV_FLASH_C46_ND- N117007 CONV_FLASH_C46_NDBIAS 0
+  CMOSN  
+ L=.2u  
+ W=.4u         
M_CONV_FLASH_C46_M2         CONV_FLASH_C46_ND+ CONV_N117494
+  CONV_FLASH_C46_NDBIAS 0 CMOSN  
+ L=.2u  
+ W=.4u         
M_CONV_FLASH_C46_M3         CONV_FLASH_C46_ND- CONV_FLASH_C46_ND- N116990
+  N116990 CMOSP  
+ L=.2u  
+ W=.6u         
M_CONV_FLASH_C47_M4         CONV_FLASH_C47_ND+ CONV_FLASH_C47_ND- N116990
+  N116990 CMOSP  
+ L=.2u  
+ W=.6u         
M_CONV_FLASH_C47_M5         CONV_FLASH_C47_NDBIAS N117027 0 0 CMOSN  
+ L=.2u  
+ W=.6u         
M_CONV_FLASH_C47_M6         Q47 CONV_FLASH_C47_ND+ N116990 N116990 CMOSP  
+ L=.2u  
+ W=.8u         
M_CONV_FLASH_C47_M7         Q47 N117027 0 0 CMOSN  
+ L=.2u  
+ W=.4u         
M_CONV_FLASH_C47_M1         CONV_FLASH_C47_ND- N117007 CONV_FLASH_C47_NDBIAS 0
+  CMOSN  
+ L=.2u  
+ W=.4u         
M_CONV_FLASH_C47_M2         CONV_FLASH_C47_ND+ CONV_N117496
+  CONV_FLASH_C47_NDBIAS 0 CMOSN  
+ L=.2u  
+ W=.4u         
M_CONV_FLASH_C47_M3         CONV_FLASH_C47_ND- CONV_FLASH_C47_ND- N116990
+  N116990 CMOSP  
+ L=.2u  
+ W=.6u         
M_CONV_FLASH_C60_M4         CONV_FLASH_C60_ND+ CONV_FLASH_C60_ND- N116990
+  N116990 CMOSP  
+ L=.2u  
+ W=.6u         
M_CONV_FLASH_C60_M5         CONV_FLASH_C60_NDBIAS N117027 0 0 CMOSN  
+ L=.2u  
+ W=.6u         
M_CONV_FLASH_C60_M6         Q60 CONV_FLASH_C60_ND+ N116990 N116990 CMOSP  
+ L=.2u  
+ W=.8u         
M_CONV_FLASH_C60_M7         Q60 N117027 0 0 CMOSN  
+ L=.2u  
+ W=.4u         
M_CONV_FLASH_C60_M1         CONV_FLASH_C60_ND- N117007 CONV_FLASH_C60_NDBIAS 0
+  CMOSN  
+ L=.2u  
+ W=.4u         
M_CONV_FLASH_C60_M2         CONV_FLASH_C60_ND+ CONV_N119887
+  CONV_FLASH_C60_NDBIAS 0 CMOSN  
+ L=.2u  
+ W=.4u         
M_CONV_FLASH_C60_M3         CONV_FLASH_C60_ND- CONV_FLASH_C60_ND- N116990
+  N116990 CMOSP  
+ L=.2u  
+ W=.6u         
M_CONV_FLASH_C45_M4         CONV_FLASH_C45_ND+ CONV_FLASH_C45_ND- N116990
+  N116990 CMOSP  
+ L=.2u  
+ W=.6u         
M_CONV_FLASH_C45_M5         CONV_FLASH_C45_NDBIAS N117027 0 0 CMOSN  
+ L=.2u  
+ W=.6u         
M_CONV_FLASH_C45_M6         Q45 CONV_FLASH_C45_ND+ N116990 N116990 CMOSP  
+ L=.2u  
+ W=.8u         
M_CONV_FLASH_C45_M7         Q45 N117027 0 0 CMOSN  
+ L=.2u  
+ W=.4u         
M_CONV_FLASH_C45_M1         CONV_FLASH_C45_ND- N117007 CONV_FLASH_C45_NDBIAS 0
+  CMOSN  
+ L=.2u  
+ W=.4u         
M_CONV_FLASH_C45_M2         CONV_FLASH_C45_ND+ CONV_N117492
+  CONV_FLASH_C45_NDBIAS 0 CMOSN  
+ L=.2u  
+ W=.4u         
M_CONV_FLASH_C45_M3         CONV_FLASH_C45_ND- CONV_FLASH_C45_ND- N116990
+  N116990 CMOSP  
+ L=.2u  
+ W=.6u         
M_CONV_FLASH_C54_M4         CONV_FLASH_C54_ND+ CONV_FLASH_C54_ND- N116990
+  N116990 CMOSP  
+ L=.2u  
+ W=.6u         
M_CONV_FLASH_C54_M5         CONV_FLASH_C54_NDBIAS N117027 0 0 CMOSN  
+ L=.2u  
+ W=.6u         
M_CONV_FLASH_C54_M6         Q54 CONV_FLASH_C54_ND+ N116990 N116990 CMOSP  
+ L=.2u  
+ W=.8u         
M_CONV_FLASH_C54_M7         Q54 N117027 0 0 CMOSN  
+ L=.2u  
+ W=.4u         
M_CONV_FLASH_C54_M1         CONV_FLASH_C54_ND- N117007 CONV_FLASH_C54_NDBIAS 0
+  CMOSN  
+ L=.2u  
+ W=.4u         
M_CONV_FLASH_C54_M2         CONV_FLASH_C54_ND+ CONV_N119899
+  CONV_FLASH_C54_NDBIAS 0 CMOSN  
+ L=.2u  
+ W=.4u         
M_CONV_FLASH_C54_M3         CONV_FLASH_C54_ND- CONV_FLASH_C54_ND- N116990
+  N116990 CMOSP  
+ L=.2u  
+ W=.6u         
M_CONV_FLASH_C34_M4         CONV_FLASH_C34_ND+ CONV_FLASH_C34_ND- N116990
+  N116990 CMOSP  
+ L=.2u  
+ W=.6u         
M_CONV_FLASH_C34_M5         CONV_FLASH_C34_NDBIAS N117027 0 0 CMOSN  
+ L=.2u  
+ W=.6u         
M_CONV_FLASH_C34_M6         Q34 CONV_FLASH_C34_ND+ N116990 N116990 CMOSP  
+ L=.2u  
+ W=.8u         
M_CONV_FLASH_C34_M7         Q34 N117027 0 0 CMOSN  
+ L=.2u  
+ W=.4u         
M_CONV_FLASH_C34_M1         CONV_FLASH_C34_ND- N117007 CONV_FLASH_C34_NDBIAS 0
+  CMOSN  
+ L=.2u  
+ W=.4u         
M_CONV_FLASH_C34_M2         CONV_FLASH_C34_ND+ CONV_N117516
+  CONV_FLASH_C34_NDBIAS 0 CMOSN  
+ L=.2u  
+ W=.4u         
M_CONV_FLASH_C34_M3         CONV_FLASH_C34_ND- CONV_FLASH_C34_ND- N116990
+  N116990 CMOSP  
+ L=.2u  
+ W=.6u         
M_CONV_FLASH_C26_M4         CONV_FLASH_C26_ND+ CONV_FLASH_C26_ND- N116990
+  N116990 CMOSP  
+ L=.2u  
+ W=.6u         
M_CONV_FLASH_C26_M5         CONV_FLASH_C26_NDBIAS N117027 0 0 CMOSN  
+ L=.2u  
+ W=.6u         
M_CONV_FLASH_C26_M6         Q26 CONV_FLASH_C26_ND+ N116990 N116990 CMOSP  
+ L=.2u  
+ W=.8u         
M_CONV_FLASH_C26_M7         Q26 N117027 0 0 CMOSN  
+ L=.2u  
+ W=.4u         
M_CONV_FLASH_C26_M1         CONV_FLASH_C26_ND- N117007 CONV_FLASH_C26_NDBIAS 0
+  CMOSN  
+ L=.2u  
+ W=.4u         
M_CONV_FLASH_C26_M2         CONV_FLASH_C26_ND+ CONV_N117536
+  CONV_FLASH_C26_NDBIAS 0 CMOSN  
+ L=.2u  
+ W=.4u         
M_CONV_FLASH_C26_M3         CONV_FLASH_C26_ND- CONV_FLASH_C26_ND- N116990
+  N116990 CMOSP  
+ L=.2u  
+ W=.6u         
M_CONV_FLASH_C48_M4         CONV_FLASH_C48_ND+ CONV_FLASH_C48_ND- N116990
+  N116990 CMOSP  
+ L=.2u  
+ W=.6u         
M_CONV_FLASH_C48_M5         CONV_FLASH_C48_NDBIAS N117027 0 0 CMOSN  
+ L=.2u  
+ W=.6u         
M_CONV_FLASH_C48_M6         Q48 CONV_FLASH_C48_ND+ N116990 N116990 CMOSP  
+ L=.2u  
+ W=.8u         
M_CONV_FLASH_C48_M7         Q48 N117027 0 0 CMOSN  
+ L=.2u  
+ W=.4u         
M_CONV_FLASH_C48_M1         CONV_FLASH_C48_ND- N117007 CONV_FLASH_C48_NDBIAS 0
+  CMOSN  
+ L=.2u  
+ W=.4u         
M_CONV_FLASH_C48_M2         CONV_FLASH_C48_ND+ CONV_N117498
+  CONV_FLASH_C48_NDBIAS 0 CMOSN  
+ L=.2u  
+ W=.4u         
M_CONV_FLASH_C48_M3         CONV_FLASH_C48_ND- CONV_FLASH_C48_ND- N116990
+  N116990 CMOSP  
+ L=.2u  
+ W=.6u         
M_CONV_FLASH_C44_M4         CONV_FLASH_C44_ND+ CONV_FLASH_C44_ND- N116990
+  N116990 CMOSP  
+ L=.2u  
+ W=.6u         
M_CONV_FLASH_C44_M5         CONV_FLASH_C44_NDBIAS N117027 0 0 CMOSN  
+ L=.2u  
+ W=.6u         
M_CONV_FLASH_C44_M6         Q44 CONV_FLASH_C44_ND+ N116990 N116990 CMOSP  
+ L=.2u  
+ W=.8u         
M_CONV_FLASH_C44_M7         Q44 N117027 0 0 CMOSN  
+ L=.2u  
+ W=.4u         
M_CONV_FLASH_C44_M1         CONV_FLASH_C44_ND- N117007 CONV_FLASH_C44_NDBIAS 0
+  CMOSN  
+ L=.2u  
+ W=.4u         
M_CONV_FLASH_C44_M2         CONV_FLASH_C44_ND+ CONV_N117490
+  CONV_FLASH_C44_NDBIAS 0 CMOSN  
+ L=.2u  
+ W=.4u         
M_CONV_FLASH_C44_M3         CONV_FLASH_C44_ND- CONV_FLASH_C44_ND- N116990
+  N116990 CMOSP  
+ L=.2u  
+ W=.6u         
M_CONV_FLASH_C7_M4         CONV_FLASH_C7_ND+ CONV_FLASH_C7_ND- N116990 N116990
+  CMOSP  
+ L=.2u  
+ W=.6u         
M_CONV_FLASH_C7_M5         CONV_FLASH_C7_NDBIAS N117027 0 0 CMOSN  
+ L=.2u  
+ W=.6u         
M_CONV_FLASH_C7_M6         Q7 CONV_FLASH_C7_ND+ N116990 N116990 CMOSP  
+ L=.2u  
+ W=.8u         
M_CONV_FLASH_C7_M7         Q7 N117027 0 0 CMOSN  
+ L=.2u  
+ W=.4u         
M_CONV_FLASH_C7_M1         CONV_FLASH_C7_ND- N117007 CONV_FLASH_C7_NDBIAS 0
+  CMOSN  
+ L=.2u  
+ W=.4u         
M_CONV_FLASH_C7_M2         CONV_FLASH_C7_ND+ CONV_N117570 CONV_FLASH_C7_NDBIAS
+  0 CMOSN  
+ L=.2u  
+ W=.4u         
M_CONV_FLASH_C7_M3         CONV_FLASH_C7_ND- CONV_FLASH_C7_ND- N116990 N116990
+  CMOSP  
+ L=.2u  
+ W=.6u         
M_CONV_FLASH_C18_M4         CONV_FLASH_C18_ND+ CONV_FLASH_C18_ND- N116990
+  N116990 CMOSP  
+ L=.2u  
+ W=.6u         
M_CONV_FLASH_C18_M5         CONV_FLASH_C18_NDBIAS N117027 0 0 CMOSN  
+ L=.2u  
+ W=.6u         
M_CONV_FLASH_C18_M6         Q18 CONV_FLASH_C18_ND+ N116990 N116990 CMOSP  
+ L=.2u  
+ W=.8u         
M_CONV_FLASH_C18_M7         Q18 N117027 0 0 CMOSN  
+ L=.2u  
+ W=.4u         
M_CONV_FLASH_C18_M1         CONV_FLASH_C18_ND- N117007 CONV_FLASH_C18_NDBIAS 0
+  CMOSN  
+ L=.2u  
+ W=.4u         
M_CONV_FLASH_C18_M2         CONV_FLASH_C18_ND+ CONV_N117548
+  CONV_FLASH_C18_NDBIAS 0 CMOSN  
+ L=.2u  
+ W=.4u         
M_CONV_FLASH_C18_M3         CONV_FLASH_C18_ND- CONV_FLASH_C18_ND- N116990
+  N116990 CMOSP  
+ L=.2u  
+ W=.6u         
M_CONV_FLASH_FFD6_NAND6_M5         CONV_FLASH_FFD6_N62152 CONV_FLASH_FFD6_Y
+  N116990 N116990 CMOSP  
+ L=.18u  
+ W=.2u         
M_CONV_FLASH_FFD6_NAND6_M6         CONV_FLASH_FFD6_N62152 CONV_FLASH_FFD6_Y
+  CONV_FLASH_FFD6_NAND6_ND2 0 CMOSN  
+ L=.18u  
+ W=.18u         
M_CONV_FLASH_FFD6_NAND6_M2         CONV_FLASH_FFD6_NAND6_ND2 CONV_FLASH_D-MSB 0
+  0 CMOSN  
+ L=.18u  
+ W=.18u         
M_CONV_FLASH_FFD6_NAND6_M4         CONV_FLASH_FFD6_N62152 CONV_FLASH_D-MSB
+  N116990 N116990 CMOSP  
+ L=.18u  
+ W=.2u         
M_CONV_FLASH_FFD6_NAND1_M2         CONV_FLASH_FFD6_NAND1_ND2 N116976
+  CONV_FLASH_FFD6_NAND1_ND3 0 CMOSN  
+ L=.18u  
+ W=.18u         
M_CONV_FLASH_FFD6_NAND1_M3         CONV_FLASH_FFD6_Y CONV_FLASH_FFD6_X N116990
+  N116990 CMOSP  
+ L=.18u  
+ W=.2u         
M_CONV_FLASH_FFD6_NAND1_M6         CONV_FLASH_FFD6_NAND1_ND3
+  CONV_FLASH_FFD6_N62152 0 0 CMOSN  
+ L=.18u  
+ W=.18u         
M_CONV_FLASH_FFD6_NAND1_M4         CONV_FLASH_FFD6_Y N116976 N116990 N116990
+  CMOSP  
+ L=.18u  
+ W=.2u         
M_CONV_FLASH_FFD6_NAND1_M1         CONV_FLASH_FFD6_Y CONV_FLASH_FFD6_X
+  CONV_FLASH_FFD6_NAND1_ND2 0 CMOSN  
+ L=.18u  
+ W=.18u         
M_CONV_FLASH_FFD6_NAND1_M5         CONV_FLASH_FFD6_Y CONV_FLASH_FFD6_N62152
+  N116990 N116990 CMOSP  
+ L=.18u  
+ W=.2u         
M_CONV_FLASH_FFD6_NAND2_M5         CONV_FLASH_FFD6_N62128
+  CONV_FLASH_FFD6_N62152 N116990 N116990 CMOSP  
+ L=.18u  
+ W=.2u         
M_CONV_FLASH_FFD6_NAND2_M6         CONV_FLASH_FFD6_N62128
+  CONV_FLASH_FFD6_N62152 CONV_FLASH_FFD6_NAND2_ND2 0 CMOSN  
+ L=.18u  
+ W=.18u         
M_CONV_FLASH_FFD6_NAND2_M2         CONV_FLASH_FFD6_NAND2_ND2 CONV_FLASH_FFD6_X
+  0 0 CMOSN  
+ L=.18u  
+ W=.18u         
M_CONV_FLASH_FFD6_NAND2_M4         CONV_FLASH_FFD6_N62128 CONV_FLASH_FFD6_X
+  N116990 N116990 CMOSP  
+ L=.18u  
+ W=.2u         
M_CONV_FLASH_FFD6_NAND3_M5         CONV_FLASH_FFD6_X CONV_FLASH_FFD6_N62128
+  N116990 N116990 CMOSP  
+ L=.18u  
+ W=.2u         
M_CONV_FLASH_FFD6_NAND3_M6         CONV_FLASH_FFD6_X CONV_FLASH_FFD6_N62128
+  CONV_FLASH_FFD6_NAND3_ND2 0 CMOSN  
+ L=.18u  
+ W=.18u         
M_CONV_FLASH_FFD6_NAND3_M2         CONV_FLASH_FFD6_NAND3_ND2 N116976 0 0 CMOSN 
+  
+ L=.18u  
+ W=.18u         
M_CONV_FLASH_FFD6_NAND3_M4         CONV_FLASH_FFD6_X N116976 N116990 N116990
+  CMOSP  
+ L=.18u  
+ W=.2u         
M_CONV_FLASH_FFD6_NAND4_M5         MSB CONV_FLASH_FFD6_X N116990 N116990 CMOSP 
+  
+ L=.18u  
+ W=.2u         
M_CONV_FLASH_FFD6_NAND4_M6         MSB CONV_FLASH_FFD6_X
+  CONV_FLASH_FFD6_NAND4_ND2 0 CMOSN  
+ L=.18u  
+ W=.18u         
M_CONV_FLASH_FFD6_NAND4_M2         CONV_FLASH_FFD6_NAND4_ND2 N-MSB 0 0 CMOSN  
+ L=.18u  
+ W=.18u         
M_CONV_FLASH_FFD6_NAND4_M4         MSB N-MSB N116990 N116990 CMOSP  
+ L=.18u  
+ W=.2u         
M_CONV_FLASH_FFD6_NAND5_M5         N-MSB MSB N116990 N116990 CMOSP  
+ L=.18u  
+ W=.2u         
M_CONV_FLASH_FFD6_NAND5_M6         N-MSB MSB CONV_FLASH_FFD6_NAND5_ND2 0 CMOSN 
+  
+ L=.18u  
+ W=.18u         
M_CONV_FLASH_FFD6_NAND5_M2         CONV_FLASH_FFD6_NAND5_ND2 CONV_FLASH_FFD6_Y
+  0 0 CMOSN  
+ L=.18u  
+ W=.18u         
M_CONV_FLASH_FFD6_NAND5_M4         N-MSB CONV_FLASH_FFD6_Y N116990 N116990
+  CMOSP  
+ L=.18u  
+ W=.2u         
M_CONV_FLASH_C4_M4         CONV_FLASH_C4_ND+ CONV_FLASH_C4_ND- N116990 N116990
+  CMOSP  
+ L=.2u  
+ W=.6u         
M_CONV_FLASH_C4_M5         CONV_FLASH_C4_NDBIAS N117027 0 0 CMOSN  
+ L=.2u  
+ W=.6u         
M_CONV_FLASH_C4_M6         Q4 CONV_FLASH_C4_ND+ N116990 N116990 CMOSP  
+ L=.2u  
+ W=.8u         
M_CONV_FLASH_C4_M7         Q4 N117027 0 0 CMOSN  
+ L=.2u  
+ W=.4u         
M_CONV_FLASH_C4_M1         CONV_FLASH_C4_ND- N117007 CONV_FLASH_C4_NDBIAS 0
+  CMOSN  
+ L=.2u  
+ W=.4u         
M_CONV_FLASH_C4_M2         CONV_FLASH_C4_ND+ CONV_N117566 CONV_FLASH_C4_NDBIAS
+  0 CMOSN  
+ L=.2u  
+ W=.4u         
M_CONV_FLASH_C4_M3         CONV_FLASH_C4_ND- CONV_FLASH_C4_ND- N116990 N116990
+  CMOSP  
+ L=.2u  
+ W=.6u         
M_CONV_FLASH_C49_M4         CONV_FLASH_C49_ND+ CONV_FLASH_C49_ND- N116990
+  N116990 CMOSP  
+ L=.2u  
+ W=.6u         
M_CONV_FLASH_C49_M5         CONV_FLASH_C49_NDBIAS N117027 0 0 CMOSN  
+ L=.2u  
+ W=.6u         
M_CONV_FLASH_C49_M6         Q49 CONV_FLASH_C49_ND+ N116990 N116990 CMOSP  
+ L=.2u  
+ W=.8u         
M_CONV_FLASH_C49_M7         Q49 N117027 0 0 CMOSN  
+ L=.2u  
+ W=.4u         
M_CONV_FLASH_C49_M1         CONV_FLASH_C49_ND- N117007 CONV_FLASH_C49_NDBIAS 0
+  CMOSN  
+ L=.2u  
+ W=.4u         
M_CONV_FLASH_C49_M2         CONV_FLASH_C49_ND+ CONV_N117500
+  CONV_FLASH_C49_NDBIAS 0 CMOSN  
+ L=.2u  
+ W=.4u         
M_CONV_FLASH_C49_M3         CONV_FLASH_C49_ND- CONV_FLASH_C49_ND- N116990
+  N116990 CMOSP  
+ L=.2u  
+ W=.6u         
M_CONV_FLASH_C43_M4         CONV_FLASH_C43_ND+ CONV_FLASH_C43_ND- N116990
+  N116990 CMOSP  
+ L=.2u  
+ W=.6u         
M_CONV_FLASH_C43_M5         CONV_FLASH_C43_NDBIAS N117027 0 0 CMOSN  
+ L=.2u  
+ W=.6u         
M_CONV_FLASH_C43_M6         Q43 CONV_FLASH_C43_ND+ N116990 N116990 CMOSP  
+ L=.2u  
+ W=.8u         
M_CONV_FLASH_C43_M7         Q43 N117027 0 0 CMOSN  
+ L=.2u  
+ W=.4u         
M_CONV_FLASH_C43_M1         CONV_FLASH_C43_ND- N117007 CONV_FLASH_C43_NDBIAS 0
+  CMOSN  
+ L=.2u  
+ W=.4u         
M_CONV_FLASH_C43_M2         CONV_FLASH_C43_ND+ CONV_N117488
+  CONV_FLASH_C43_NDBIAS 0 CMOSN  
+ L=.2u  
+ W=.4u         
M_CONV_FLASH_C43_M3         CONV_FLASH_C43_ND- CONV_FLASH_C43_ND- N116990
+  N116990 CMOSP  
+ L=.2u  
+ W=.6u         
M_CONV_FLASH_C37_M4         CONV_FLASH_C37_ND+ CONV_FLASH_C37_ND- N116990
+  N116990 CMOSP  
+ L=.2u  
+ W=.6u         
M_CONV_FLASH_C37_M5         CONV_FLASH_C37_NDBIAS N117027 0 0 CMOSN  
+ L=.2u  
+ W=.6u         
M_CONV_FLASH_C37_M6         Q37 CONV_FLASH_C37_ND+ N116990 N116990 CMOSP  
+ L=.2u  
+ W=.8u         
M_CONV_FLASH_C37_M7         Q37 N117027 0 0 CMOSN  
+ L=.2u  
+ W=.4u         
M_CONV_FLASH_C37_M1         CONV_FLASH_C37_ND- N117007 CONV_FLASH_C37_NDBIAS 0
+  CMOSN  
+ L=.2u  
+ W=.4u         
M_CONV_FLASH_C37_M2         CONV_FLASH_C37_ND+ CONV_N117510
+  CONV_FLASH_C37_NDBIAS 0 CMOSN  
+ L=.2u  
+ W=.4u         
M_CONV_FLASH_C37_M3         CONV_FLASH_C37_ND- CONV_FLASH_C37_ND- N116990
+  N116990 CMOSP  
+ L=.2u  
+ W=.6u         
M_CONV_FLASH_C27_M4         CONV_FLASH_C27_ND+ CONV_FLASH_C27_ND- N116990
+  N116990 CMOSP  
+ L=.2u  
+ W=.6u         
M_CONV_FLASH_C27_M5         CONV_FLASH_C27_NDBIAS N117027 0 0 CMOSN  
+ L=.2u  
+ W=.6u         
M_CONV_FLASH_C27_M6         Q27 CONV_FLASH_C27_ND+ N116990 N116990 CMOSP  
+ L=.2u  
+ W=.8u         
M_CONV_FLASH_C27_M7         Q27 N117027 0 0 CMOSN  
+ L=.2u  
+ W=.4u         
M_CONV_FLASH_C27_M1         CONV_FLASH_C27_ND- N117007 CONV_FLASH_C27_NDBIAS 0
+  CMOSN  
+ L=.2u  
+ W=.4u         
M_CONV_FLASH_C27_M2         CONV_FLASH_C27_ND+ CONV_N117538
+  CONV_FLASH_C27_NDBIAS 0 CMOSN  
+ L=.2u  
+ W=.4u         
M_CONV_FLASH_C27_M3         CONV_FLASH_C27_ND- CONV_FLASH_C27_ND- N116990
+  N116990 CMOSP  
+ L=.2u  
+ W=.6u         
M_CONV_FLASH_FFD3_NAND6_M5         CONV_FLASH_FFD3_N62152 CONV_FLASH_FFD3_Y
+  N116990 N116990 CMOSP  
+ L=.18u  
+ W=.2u         
M_CONV_FLASH_FFD3_NAND6_M6         CONV_FLASH_FFD3_N62152 CONV_FLASH_FFD3_Y
+  CONV_FLASH_FFD3_NAND6_ND2 0 CMOSN  
+ L=.18u  
+ W=.18u         
M_CONV_FLASH_FFD3_NAND6_M2         CONV_FLASH_FFD3_NAND6_ND2 CONV_FLASH_D-3SB 0
+  0 CMOSN  
+ L=.18u  
+ W=.18u         
M_CONV_FLASH_FFD3_NAND6_M4         CONV_FLASH_FFD3_N62152 CONV_FLASH_D-3SB
+  N116990 N116990 CMOSP  
+ L=.18u  
+ W=.2u         
M_CONV_FLASH_FFD3_NAND1_M2         CONV_FLASH_FFD3_NAND1_ND2 N116976
+  CONV_FLASH_FFD3_NAND1_ND3 0 CMOSN  
+ L=.18u  
+ W=.18u         
M_CONV_FLASH_FFD3_NAND1_M3         CONV_FLASH_FFD3_Y CONV_FLASH_FFD3_X N116990
+  N116990 CMOSP  
+ L=.18u  
+ W=.2u         
M_CONV_FLASH_FFD3_NAND1_M6         CONV_FLASH_FFD3_NAND1_ND3
+  CONV_FLASH_FFD3_N62152 0 0 CMOSN  
+ L=.18u  
+ W=.18u         
M_CONV_FLASH_FFD3_NAND1_M4         CONV_FLASH_FFD3_Y N116976 N116990 N116990
+  CMOSP  
+ L=.18u  
+ W=.2u         
M_CONV_FLASH_FFD3_NAND1_M1         CONV_FLASH_FFD3_Y CONV_FLASH_FFD3_X
+  CONV_FLASH_FFD3_NAND1_ND2 0 CMOSN  
+ L=.18u  
+ W=.18u         
M_CONV_FLASH_FFD3_NAND1_M5         CONV_FLASH_FFD3_Y CONV_FLASH_FFD3_N62152
+  N116990 N116990 CMOSP  
+ L=.18u  
+ W=.2u         
M_CONV_FLASH_FFD3_NAND2_M5         CONV_FLASH_FFD3_N62128
+  CONV_FLASH_FFD3_N62152 N116990 N116990 CMOSP  
+ L=.18u  
+ W=.2u         
M_CONV_FLASH_FFD3_NAND2_M6         CONV_FLASH_FFD3_N62128
+  CONV_FLASH_FFD3_N62152 CONV_FLASH_FFD3_NAND2_ND2 0 CMOSN  
+ L=.18u  
+ W=.18u         
M_CONV_FLASH_FFD3_NAND2_M2         CONV_FLASH_FFD3_NAND2_ND2 CONV_FLASH_FFD3_X
+  0 0 CMOSN  
+ L=.18u  
+ W=.18u         
M_CONV_FLASH_FFD3_NAND2_M4         CONV_FLASH_FFD3_N62128 CONV_FLASH_FFD3_X
+  N116990 N116990 CMOSP  
+ L=.18u  
+ W=.2u         
M_CONV_FLASH_FFD3_NAND3_M5         CONV_FLASH_FFD3_X CONV_FLASH_FFD3_N62128
+  N116990 N116990 CMOSP  
+ L=.18u  
+ W=.2u         
M_CONV_FLASH_FFD3_NAND3_M6         CONV_FLASH_FFD3_X CONV_FLASH_FFD3_N62128
+  CONV_FLASH_FFD3_NAND3_ND2 0 CMOSN  
+ L=.18u  
+ W=.18u         
M_CONV_FLASH_FFD3_NAND3_M2         CONV_FLASH_FFD3_NAND3_ND2 N116976 0 0 CMOSN 
+  
+ L=.18u  
+ W=.18u         
M_CONV_FLASH_FFD3_NAND3_M4         CONV_FLASH_FFD3_X N116976 N116990 N116990
+  CMOSP  
+ L=.18u  
+ W=.2u         
M_CONV_FLASH_FFD3_NAND4_M5         3SB CONV_FLASH_FFD3_X N116990 N116990 CMOSP 
+  
+ L=.18u  
+ W=.2u         
M_CONV_FLASH_FFD3_NAND4_M6         3SB CONV_FLASH_FFD3_X
+  CONV_FLASH_FFD3_NAND4_ND2 0 CMOSN  
+ L=.18u  
+ W=.18u         
M_CONV_FLASH_FFD3_NAND4_M2         CONV_FLASH_FFD3_NAND4_ND2 N-3SB 0 0 CMOSN  
+ L=.18u  
+ W=.18u         
M_CONV_FLASH_FFD3_NAND4_M4         3SB N-3SB N116990 N116990 CMOSP  
+ L=.18u  
+ W=.2u         
M_CONV_FLASH_FFD3_NAND5_M5         N-3SB 3SB N116990 N116990 CMOSP  
+ L=.18u  
+ W=.2u         
M_CONV_FLASH_FFD3_NAND5_M6         N-3SB 3SB CONV_FLASH_FFD3_NAND5_ND2 0 CMOSN 
+  
+ L=.18u  
+ W=.18u         
M_CONV_FLASH_FFD3_NAND5_M2         CONV_FLASH_FFD3_NAND5_ND2 CONV_FLASH_FFD3_Y
+  0 0 CMOSN  
+ L=.18u  
+ W=.18u         
M_CONV_FLASH_FFD3_NAND5_M4         N-3SB CONV_FLASH_FFD3_Y N116990 N116990
+  CMOSP  
+ L=.18u  
+ W=.2u         
M_CONV_FLASH_C32_M4         CONV_FLASH_C32_ND+ CONV_FLASH_C32_ND- N116990
+  N116990 CMOSP  
+ L=.2u  
+ W=.6u         
M_CONV_FLASH_C32_M5         CONV_FLASH_C32_NDBIAS N117027 0 0 CMOSN  
+ L=.2u  
+ W=.6u         
M_CONV_FLASH_C32_M6         CONV_FLASH_D-MSB CONV_FLASH_C32_ND+ N116990 N116990
+  CMOSP  
+ L=.2u  
+ W=.8u         
M_CONV_FLASH_C32_M7         CONV_FLASH_D-MSB N117027 0 0 CMOSN  
+ L=.2u  
+ W=.4u         
M_CONV_FLASH_C32_M1         CONV_FLASH_C32_ND- N117007 CONV_FLASH_C32_NDBIAS 0
+  CMOSN  
+ L=.2u  
+ W=.4u         
M_CONV_FLASH_C32_M2         CONV_FLASH_C32_ND+ CONV_N117520
+  CONV_FLASH_C32_NDBIAS 0 CMOSN  
+ L=.2u  
+ W=.4u         
M_CONV_FLASH_C32_M3         CONV_FLASH_C32_ND- CONV_FLASH_C32_ND- N116990
+  N116990 CMOSP  
+ L=.2u  
+ W=.6u         
M_CONV_FLASH_C58_M4         CONV_FLASH_C58_ND+ CONV_FLASH_C58_ND- N116990
+  N116990 CMOSP  
+ L=.2u  
+ W=.6u         
M_CONV_FLASH_C58_M5         CONV_FLASH_C58_NDBIAS N117027 0 0 CMOSN  
+ L=.2u  
+ W=.6u         
M_CONV_FLASH_C58_M6         Q58 CONV_FLASH_C58_ND+ N116990 N116990 CMOSP  
+ L=.2u  
+ W=.8u         
M_CONV_FLASH_C58_M7         Q58 N117027 0 0 CMOSN  
+ L=.2u  
+ W=.4u         
M_CONV_FLASH_C58_M1         CONV_FLASH_C58_ND- N117007 CONV_FLASH_C58_NDBIAS 0
+  CMOSN  
+ L=.2u  
+ W=.4u         
M_CONV_FLASH_C58_M2         CONV_FLASH_C58_ND+ CONV_N119891
+  CONV_FLASH_C58_NDBIAS 0 CMOSN  
+ L=.2u  
+ W=.4u         
M_CONV_FLASH_C58_M3         CONV_FLASH_C58_ND- CONV_FLASH_C58_ND- N116990
+  N116990 CMOSP  
+ L=.2u  
+ W=.6u         
M_CONV_FLASH_C17_M4         CONV_FLASH_C17_ND+ CONV_FLASH_C17_ND- N116990
+  N116990 CMOSP  
+ L=.2u  
+ W=.6u         
M_CONV_FLASH_C17_M5         CONV_FLASH_C17_NDBIAS N117027 0 0 CMOSN  
+ L=.2u  
+ W=.6u         
M_CONV_FLASH_C17_M6         Q17 CONV_FLASH_C17_ND+ N116990 N116990 CMOSP  
+ L=.2u  
+ W=.8u         
M_CONV_FLASH_C17_M7         Q17 N117027 0 0 CMOSN  
+ L=.2u  
+ W=.4u         
M_CONV_FLASH_C17_M1         CONV_FLASH_C17_ND- N117007 CONV_FLASH_C17_NDBIAS 0
+  CMOSN  
+ L=.2u  
+ W=.4u         
M_CONV_FLASH_C17_M2         CONV_FLASH_C17_ND+ CONV_N117550
+  CONV_FLASH_C17_NDBIAS 0 CMOSN  
+ L=.2u  
+ W=.4u         
M_CONV_FLASH_C17_M3         CONV_FLASH_C17_ND- CONV_FLASH_C17_ND- N116990
+  N116990 CMOSP  
+ L=.2u  
+ W=.6u         
M_CONV_FLASH_C42_M4         CONV_FLASH_C42_ND+ CONV_FLASH_C42_ND- N116990
+  N116990 CMOSP  
+ L=.2u  
+ W=.6u         
M_CONV_FLASH_C42_M5         CONV_FLASH_C42_NDBIAS N117027 0 0 CMOSN  
+ L=.2u  
+ W=.6u         
M_CONV_FLASH_C42_M6         Q42 CONV_FLASH_C42_ND+ N116990 N116990 CMOSP  
+ L=.2u  
+ W=.8u         
M_CONV_FLASH_C42_M7         Q42 N117027 0 0 CMOSN  
+ L=.2u  
+ W=.4u         
M_CONV_FLASH_C42_M1         CONV_FLASH_C42_ND- N117007 CONV_FLASH_C42_NDBIAS 0
+  CMOSN  
+ L=.2u  
+ W=.4u         
M_CONV_FLASH_C42_M2         CONV_FLASH_C42_ND+ CONV_N117486
+  CONV_FLASH_C42_NDBIAS 0 CMOSN  
+ L=.2u  
+ W=.4u         
M_CONV_FLASH_C42_M3         CONV_FLASH_C42_ND- CONV_FLASH_C42_ND- N116990
+  N116990 CMOSP  
+ L=.2u  
+ W=.6u         
M_CONV_FLASH_C50_M4         CONV_FLASH_C50_ND+ CONV_FLASH_C50_ND- N116990
+  N116990 CMOSP  
+ L=.2u  
+ W=.6u         
M_CONV_FLASH_C50_M5         CONV_FLASH_C50_NDBIAS N117027 0 0 CMOSN  
+ L=.2u  
+ W=.6u         
M_CONV_FLASH_C50_M6         Q50 CONV_FLASH_C50_ND+ N116990 N116990 CMOSP  
+ L=.2u  
+ W=.8u         
M_CONV_FLASH_C50_M7         Q50 N117027 0 0 CMOSN  
+ L=.2u  
+ W=.4u         
M_CONV_FLASH_C50_M1         CONV_FLASH_C50_ND- N117007 CONV_FLASH_C50_NDBIAS 0
+  CMOSN  
+ L=.2u  
+ W=.4u         
M_CONV_FLASH_C50_M2         CONV_FLASH_C50_ND+ CONV_N119903
+  CONV_FLASH_C50_NDBIAS 0 CMOSN  
+ L=.2u  
+ W=.4u         
M_CONV_FLASH_C50_M3         CONV_FLASH_C50_ND- CONV_FLASH_C50_ND- N116990
+  N116990 CMOSP  
+ L=.2u  
+ W=.6u         
M_CONV_FLASH_C55_M4         CONV_FLASH_C55_ND+ CONV_FLASH_C55_ND- N116990
+  N116990 CMOSP  
+ L=.2u  
+ W=.6u         
M_CONV_FLASH_C55_M5         CONV_FLASH_C55_NDBIAS N117027 0 0 CMOSN  
+ L=.2u  
+ W=.6u         
M_CONV_FLASH_C55_M6         Q55 CONV_FLASH_C55_ND+ N116990 N116990 CMOSP  
+ L=.2u  
+ W=.8u         
M_CONV_FLASH_C55_M7         Q55 N117027 0 0 CMOSN  
+ L=.2u  
+ W=.4u         
M_CONV_FLASH_C55_M1         CONV_FLASH_C55_ND- N117007 CONV_FLASH_C55_NDBIAS 0
+  CMOSN  
+ L=.2u  
+ W=.4u         
M_CONV_FLASH_C55_M2         CONV_FLASH_C55_ND+ CONV_N119897
+  CONV_FLASH_C55_NDBIAS 0 CMOSN  
+ L=.2u  
+ W=.4u         
M_CONV_FLASH_C55_M3         CONV_FLASH_C55_ND- CONV_FLASH_C55_ND- N116990
+  N116990 CMOSP  
+ L=.2u  
+ W=.6u         
M_CONV_FLASH_C3_M4         CONV_FLASH_C3_ND+ CONV_FLASH_C3_ND- N116990 N116990
+  CMOSP  
+ L=.2u  
+ W=.6u         
M_CONV_FLASH_C3_M5         CONV_FLASH_C3_NDBIAS N117027 0 0 CMOSN  
+ L=.2u  
+ W=.6u         
M_CONV_FLASH_C3_M6         Q3 CONV_FLASH_C3_ND+ N116990 N116990 CMOSP  
+ L=.2u  
+ W=.8u         
M_CONV_FLASH_C3_M7         Q3 N117027 0 0 CMOSN  
+ L=.2u  
+ W=.4u         
M_CONV_FLASH_C3_M1         CONV_FLASH_C3_ND- N117007 CONV_FLASH_C3_NDBIAS 0
+  CMOSN  
+ L=.2u  
+ W=.4u         
M_CONV_FLASH_C3_M2         CONV_FLASH_C3_ND+ CONV_N117568 CONV_FLASH_C3_NDBIAS
+  0 CMOSN  
+ L=.2u  
+ W=.4u         
M_CONV_FLASH_C3_M3         CONV_FLASH_C3_ND- CONV_FLASH_C3_ND- N116990 N116990
+  CMOSP  
+ L=.2u  
+ W=.6u         
M_CONV_FLASH_C28_M4         CONV_FLASH_C28_ND+ CONV_FLASH_C28_ND- N116990
+  N116990 CMOSP  
+ L=.2u  
+ W=.6u         
M_CONV_FLASH_C28_M5         CONV_FLASH_C28_NDBIAS N117027 0 0 CMOSN  
+ L=.2u  
+ W=.6u         
M_CONV_FLASH_C28_M6         Q28 CONV_FLASH_C28_ND+ N116990 N116990 CMOSP  
+ L=.2u  
+ W=.8u         
M_CONV_FLASH_C28_M7         Q28 N117027 0 0 CMOSN  
+ L=.2u  
+ W=.4u         
M_CONV_FLASH_C28_M1         CONV_FLASH_C28_ND- N117007 CONV_FLASH_C28_NDBIAS 0
+  CMOSN  
+ L=.2u  
+ W=.4u         
M_CONV_FLASH_C28_M2         CONV_FLASH_C28_ND+ CONV_N117540
+  CONV_FLASH_C28_NDBIAS 0 CMOSN  
+ L=.2u  
+ W=.4u         
M_CONV_FLASH_C28_M3         CONV_FLASH_C28_ND- CONV_FLASH_C28_ND- N116990
+  N116990 CMOSP  
+ L=.2u  
+ W=.6u         
M_CONV_FLASH_C63_M4         CONV_FLASH_C63_ND+ CONV_FLASH_C63_ND- N116990
+  N116990 CMOSP  
+ L=.2u  
+ W=.6u         
M_CONV_FLASH_C63_M5         CONV_FLASH_C63_NDBIAS N117027 0 0 CMOSN  
+ L=.2u  
+ W=.6u         
M_CONV_FLASH_C63_M6         Q63 CONV_FLASH_C63_ND+ N116990 N116990 CMOSP  
+ L=.2u  
+ W=.8u         
M_CONV_FLASH_C63_M7         Q63 N117027 0 0 CMOSN  
+ L=.2u  
+ W=.4u         
M_CONV_FLASH_C63_M1         CONV_FLASH_C63_ND- N117007 CONV_FLASH_C63_NDBIAS 0
+  CMOSN  
+ L=.2u  
+ W=.4u         
M_CONV_FLASH_C63_M2         CONV_FLASH_C63_ND+ CONV_N119881
+  CONV_FLASH_C63_NDBIAS 0 CMOSN  
+ L=.2u  
+ W=.4u         
M_CONV_FLASH_C63_M3         CONV_FLASH_C63_ND- CONV_FLASH_C63_ND- N116990
+  N116990 CMOSP  
+ L=.2u  
+ W=.6u         
M_CONV_FLASH_C41_M4         CONV_FLASH_C41_ND+ CONV_FLASH_C41_ND- N116990
+  N116990 CMOSP  
+ L=.2u  
+ W=.6u         
M_CONV_FLASH_C41_M5         CONV_FLASH_C41_NDBIAS N117027 0 0 CMOSN  
+ L=.2u  
+ W=.6u         
M_CONV_FLASH_C41_M6         Q41 CONV_FLASH_C41_ND+ N116990 N116990 CMOSP  
+ L=.2u  
+ W=.8u         
M_CONV_FLASH_C41_M7         Q41 N117027 0 0 CMOSN  
+ L=.2u  
+ W=.4u         
M_CONV_FLASH_C41_M1         CONV_FLASH_C41_ND- N117007 CONV_FLASH_C41_NDBIAS 0
+  CMOSN  
+ L=.2u  
+ W=.4u         
M_CONV_FLASH_C41_M2         CONV_FLASH_C41_ND+ CONV_N117502
+  CONV_FLASH_C41_NDBIAS 0 CMOSN  
+ L=.2u  
+ W=.4u         
M_CONV_FLASH_C41_M3         CONV_FLASH_C41_ND- CONV_FLASH_C41_ND- N116990
+  N116990 CMOSP  
+ L=.2u  
+ W=.6u         
M_CONV_FLASH_C33_M4         CONV_FLASH_C33_ND+ CONV_FLASH_C33_ND- N116990
+  N116990 CMOSP  
+ L=.2u  
+ W=.6u         
M_CONV_FLASH_C33_M5         CONV_FLASH_C33_NDBIAS N117027 0 0 CMOSN  
+ L=.2u  
+ W=.6u         
M_CONV_FLASH_C33_M6         Q33 CONV_FLASH_C33_ND+ N116990 N116990 CMOSP  
+ L=.2u  
+ W=.8u         
M_CONV_FLASH_C33_M7         Q33 N117027 0 0 CMOSN  
+ L=.2u  
+ W=.4u         
M_CONV_FLASH_C33_M1         CONV_FLASH_C33_ND- N117007 CONV_FLASH_C33_NDBIAS 0
+  CMOSN  
+ L=.2u  
+ W=.4u         
M_CONV_FLASH_C33_M2         CONV_FLASH_C33_ND+ CONV_N117518
+  CONV_FLASH_C33_NDBIAS 0 CMOSN  
+ L=.2u  
+ W=.4u         
M_CONV_FLASH_C33_M3         CONV_FLASH_C33_ND- CONV_FLASH_C33_ND- N116990
+  N116990 CMOSP  
+ L=.2u  
+ W=.6u         
M_CONV_FLASH_C51_M4         CONV_FLASH_C51_ND+ CONV_FLASH_C51_ND- N116990
+  N116990 CMOSP  
+ L=.2u  
+ W=.6u         
M_CONV_FLASH_C51_M5         CONV_FLASH_C51_NDBIAS N117027 0 0 CMOSN  
+ L=.2u  
+ W=.6u         
M_CONV_FLASH_C51_M6         Q51 CONV_FLASH_C51_ND+ N116990 N116990 CMOSP  
+ L=.2u  
+ W=.8u         
M_CONV_FLASH_C51_M7         Q51 N117027 0 0 CMOSN  
+ L=.2u  
+ W=.4u         
M_CONV_FLASH_C51_M1         CONV_FLASH_C51_ND- N117007 CONV_FLASH_C51_NDBIAS 0
+  CMOSN  
+ L=.2u  
+ W=.4u         
M_CONV_FLASH_C51_M2         CONV_FLASH_C51_ND+ CONV_N119905
+  CONV_FLASH_C51_NDBIAS 0 CMOSN  
+ L=.2u  
+ W=.4u         
M_CONV_FLASH_C51_M3         CONV_FLASH_C51_ND- CONV_FLASH_C51_ND- N116990
+  N116990 CMOSP  
+ L=.2u  
+ W=.6u         
M_CONV_FLASH_C36_M4         CONV_FLASH_C36_ND+ CONV_FLASH_C36_ND- N116990
+  N116990 CMOSP  
+ L=.2u  
+ W=.6u         
M_CONV_FLASH_C36_M5         CONV_FLASH_C36_NDBIAS N117027 0 0 CMOSN  
+ L=.2u  
+ W=.6u         
M_CONV_FLASH_C36_M6         Q36 CONV_FLASH_C36_ND+ N116990 N116990 CMOSP  
+ L=.2u  
+ W=.8u         
M_CONV_FLASH_C36_M7         Q36 N117027 0 0 CMOSN  
+ L=.2u  
+ W=.4u         
M_CONV_FLASH_C36_M1         CONV_FLASH_C36_ND- N117007 CONV_FLASH_C36_NDBIAS 0
+  CMOSN  
+ L=.2u  
+ W=.4u         
M_CONV_FLASH_C36_M2         CONV_FLASH_C36_ND+ CONV_N117512
+  CONV_FLASH_C36_NDBIAS 0 CMOSN  
+ L=.2u  
+ W=.4u         
M_CONV_FLASH_C36_M3         CONV_FLASH_C36_ND- CONV_FLASH_C36_ND- N116990
+  N116990 CMOSP  
+ L=.2u  
+ W=.6u         
M_CONV_FLASH_C61_M4         CONV_FLASH_C61_ND+ CONV_FLASH_C61_ND- N116990
+  N116990 CMOSP  
+ L=.2u  
+ W=.6u         
M_CONV_FLASH_C61_M5         CONV_FLASH_C61_NDBIAS N117027 0 0 CMOSN  
+ L=.2u  
+ W=.6u         
M_CONV_FLASH_C61_M6         Q61 CONV_FLASH_C61_ND+ N116990 N116990 CMOSP  
+ L=.2u  
+ W=.8u         
M_CONV_FLASH_C61_M7         Q61 N117027 0 0 CMOSN  
+ L=.2u  
+ W=.4u         
M_CONV_FLASH_C61_M1         CONV_FLASH_C61_ND- N117007 CONV_FLASH_C61_NDBIAS 0
+  CMOSN  
+ L=.2u  
+ W=.4u         
M_CONV_FLASH_C61_M2         CONV_FLASH_C61_ND+ CONV_N119885
+  CONV_FLASH_C61_NDBIAS 0 CMOSN  
+ L=.2u  
+ W=.4u         
M_CONV_FLASH_C61_M3         CONV_FLASH_C61_ND- CONV_FLASH_C61_ND- N116990
+  N116990 CMOSP  
+ L=.2u  
+ W=.6u         
M_CONV_FLASH_FFD4_NAND6_M5         CONV_FLASH_FFD4_N62152 CONV_FLASH_FFD4_Y
+  N116990 N116990 CMOSP  
+ L=.18u  
+ W=.2u         
M_CONV_FLASH_FFD4_NAND6_M6         CONV_FLASH_FFD4_N62152 CONV_FLASH_FFD4_Y
+  CONV_FLASH_FFD4_NAND6_ND2 0 CMOSN  
+ L=.18u  
+ W=.18u         
M_CONV_FLASH_FFD4_NAND6_M2         CONV_FLASH_FFD4_NAND6_ND2 CONV_FLASH_D-4SB 0
+  0 CMOSN  
+ L=.18u  
+ W=.18u         
M_CONV_FLASH_FFD4_NAND6_M4         CONV_FLASH_FFD4_N62152 CONV_FLASH_D-4SB
+  N116990 N116990 CMOSP  
+ L=.18u  
+ W=.2u         
M_CONV_FLASH_FFD4_NAND1_M2         CONV_FLASH_FFD4_NAND1_ND2 N116976
+  CONV_FLASH_FFD4_NAND1_ND3 0 CMOSN  
+ L=.18u  
+ W=.18u         
M_CONV_FLASH_FFD4_NAND1_M3         CONV_FLASH_FFD4_Y CONV_FLASH_FFD4_X N116990
+  N116990 CMOSP  
+ L=.18u  
+ W=.2u         
M_CONV_FLASH_FFD4_NAND1_M6         CONV_FLASH_FFD4_NAND1_ND3
+  CONV_FLASH_FFD4_N62152 0 0 CMOSN  
+ L=.18u  
+ W=.18u         
M_CONV_FLASH_FFD4_NAND1_M4         CONV_FLASH_FFD4_Y N116976 N116990 N116990
+  CMOSP  
+ L=.18u  
+ W=.2u         
M_CONV_FLASH_FFD4_NAND1_M1         CONV_FLASH_FFD4_Y CONV_FLASH_FFD4_X
+  CONV_FLASH_FFD4_NAND1_ND2 0 CMOSN  
+ L=.18u  
+ W=.18u         
M_CONV_FLASH_FFD4_NAND1_M5         CONV_FLASH_FFD4_Y CONV_FLASH_FFD4_N62152
+  N116990 N116990 CMOSP  
+ L=.18u  
+ W=.2u         
M_CONV_FLASH_FFD4_NAND2_M5         CONV_FLASH_FFD4_N62128
+  CONV_FLASH_FFD4_N62152 N116990 N116990 CMOSP  
+ L=.18u  
+ W=.2u         
M_CONV_FLASH_FFD4_NAND2_M6         CONV_FLASH_FFD4_N62128
+  CONV_FLASH_FFD4_N62152 CONV_FLASH_FFD4_NAND2_ND2 0 CMOSN  
+ L=.18u  
+ W=.18u         
M_CONV_FLASH_FFD4_NAND2_M2         CONV_FLASH_FFD4_NAND2_ND2 CONV_FLASH_FFD4_X
+  0 0 CMOSN  
+ L=.18u  
+ W=.18u         
M_CONV_FLASH_FFD4_NAND2_M4         CONV_FLASH_FFD4_N62128 CONV_FLASH_FFD4_X
+  N116990 N116990 CMOSP  
+ L=.18u  
+ W=.2u         
M_CONV_FLASH_FFD4_NAND3_M5         CONV_FLASH_FFD4_X CONV_FLASH_FFD4_N62128
+  N116990 N116990 CMOSP  
+ L=.18u  
+ W=.2u         
M_CONV_FLASH_FFD4_NAND3_M6         CONV_FLASH_FFD4_X CONV_FLASH_FFD4_N62128
+  CONV_FLASH_FFD4_NAND3_ND2 0 CMOSN  
+ L=.18u  
+ W=.18u         
M_CONV_FLASH_FFD4_NAND3_M2         CONV_FLASH_FFD4_NAND3_ND2 N116976 0 0 CMOSN 
+  
+ L=.18u  
+ W=.18u         
M_CONV_FLASH_FFD4_NAND3_M4         CONV_FLASH_FFD4_X N116976 N116990 N116990
+  CMOSP  
+ L=.18u  
+ W=.2u         
M_CONV_FLASH_FFD4_NAND4_M5         4SB CONV_FLASH_FFD4_X N116990 N116990 CMOSP 
+  
+ L=.18u  
+ W=.2u         
M_CONV_FLASH_FFD4_NAND4_M6         4SB CONV_FLASH_FFD4_X
+  CONV_FLASH_FFD4_NAND4_ND2 0 CMOSN  
+ L=.18u  
+ W=.18u         
M_CONV_FLASH_FFD4_NAND4_M2         CONV_FLASH_FFD4_NAND4_ND2 N-4SB 0 0 CMOSN  
+ L=.18u  
+ W=.18u         
M_CONV_FLASH_FFD4_NAND4_M4         4SB N-4SB N116990 N116990 CMOSP  
+ L=.18u  
+ W=.2u         
M_CONV_FLASH_FFD4_NAND5_M5         N-4SB 4SB N116990 N116990 CMOSP  
+ L=.18u  
+ W=.2u         
M_CONV_FLASH_FFD4_NAND5_M6         N-4SB 4SB CONV_FLASH_FFD4_NAND5_ND2 0 CMOSN 
+  
+ L=.18u  
+ W=.18u         
M_CONV_FLASH_FFD4_NAND5_M2         CONV_FLASH_FFD4_NAND5_ND2 CONV_FLASH_FFD4_Y
+  0 0 CMOSN  
+ L=.18u  
+ W=.18u         
M_CONV_FLASH_FFD4_NAND5_M4         N-4SB CONV_FLASH_FFD4_Y N116990 N116990
+  CMOSP  
+ L=.18u  
+ W=.2u         
M_CONV_FLASH_C29_M4         CONV_FLASH_C29_ND+ CONV_FLASH_C29_ND- N116990
+  N116990 CMOSP  
+ L=.2u  
+ W=.6u         
M_CONV_FLASH_C29_M5         CONV_FLASH_C29_NDBIAS N117027 0 0 CMOSN  
+ L=.2u  
+ W=.6u         
M_CONV_FLASH_C29_M6         Q29 CONV_FLASH_C29_ND+ N116990 N116990 CMOSP  
+ L=.2u  
+ W=.8u         
M_CONV_FLASH_C29_M7         Q29 N117027 0 0 CMOSN  
+ L=.2u  
+ W=.4u         
M_CONV_FLASH_C29_M1         CONV_FLASH_C29_ND- N117007 CONV_FLASH_C29_NDBIAS 0
+  CMOSN  
+ L=.2u  
+ W=.4u         
M_CONV_FLASH_C29_M2         CONV_FLASH_C29_ND+ CONV_N117542
+  CONV_FLASH_C29_NDBIAS 0 CMOSN  
+ L=.2u  
+ W=.4u         
M_CONV_FLASH_C29_M3         CONV_FLASH_C29_ND- CONV_FLASH_C29_ND- N116990
+  N116990 CMOSP  
+ L=.2u  
+ W=.6u         
M_CONV_FLASH_C40_M4         CONV_FLASH_C40_ND+ CONV_FLASH_C40_ND- N116990
+  N116990 CMOSP  
+ L=.2u  
+ W=.6u         
M_CONV_FLASH_C40_M5         CONV_FLASH_C40_NDBIAS N117027 0 0 CMOSN  
+ L=.2u  
+ W=.6u         
M_CONV_FLASH_C40_M6         Q40 CONV_FLASH_C40_ND+ N116990 N116990 CMOSP  
+ L=.2u  
+ W=.8u         
M_CONV_FLASH_C40_M7         Q40 N117027 0 0 CMOSN  
+ L=.2u  
+ W=.4u         
M_CONV_FLASH_C40_M1         CONV_FLASH_C40_ND- N117007 CONV_FLASH_C40_NDBIAS 0
+  CMOSN  
+ L=.2u  
+ W=.4u         
M_CONV_FLASH_C40_M2         CONV_FLASH_C40_ND+ CONV_N117504
+  CONV_FLASH_C40_NDBIAS 0 CMOSN  
+ L=.2u  
+ W=.4u         
M_CONV_FLASH_C40_M3         CONV_FLASH_C40_ND- CONV_FLASH_C40_ND- N116990
+  N116990 CMOSP  
+ L=.2u  
+ W=.6u         
M_CONV_FLASH_FFD1_NAND6_M5         CONV_FLASH_FFD1_N62152 CONV_FLASH_FFD1_Y
+  N116990 N116990 CMOSP  
+ L=.18u  
+ W=.2u         
M_CONV_FLASH_FFD1_NAND6_M6         CONV_FLASH_FFD1_N62152 CONV_FLASH_FFD1_Y
+  CONV_FLASH_FFD1_NAND6_ND2 0 CMOSN  
+ L=.18u  
+ W=.18u         
M_CONV_FLASH_FFD1_NAND6_M2         CONV_FLASH_FFD1_NAND6_ND2 CONV_FLASH_D-LSB 0
+  0 CMOSN  
+ L=.18u  
+ W=.18u         
M_CONV_FLASH_FFD1_NAND6_M4         CONV_FLASH_FFD1_N62152 CONV_FLASH_D-LSB
+  N116990 N116990 CMOSP  
+ L=.18u  
+ W=.2u         
M_CONV_FLASH_FFD1_NAND1_M2         CONV_FLASH_FFD1_NAND1_ND2 N116976
+  CONV_FLASH_FFD1_NAND1_ND3 0 CMOSN  
+ L=.18u  
+ W=.18u         
M_CONV_FLASH_FFD1_NAND1_M3         CONV_FLASH_FFD1_Y CONV_FLASH_FFD1_X N116990
+  N116990 CMOSP  
+ L=.18u  
+ W=.2u         
M_CONV_FLASH_FFD1_NAND1_M6         CONV_FLASH_FFD1_NAND1_ND3
+  CONV_FLASH_FFD1_N62152 0 0 CMOSN  
+ L=.18u  
+ W=.18u         
M_CONV_FLASH_FFD1_NAND1_M4         CONV_FLASH_FFD1_Y N116976 N116990 N116990
+  CMOSP  
+ L=.18u  
+ W=.2u         
M_CONV_FLASH_FFD1_NAND1_M1         CONV_FLASH_FFD1_Y CONV_FLASH_FFD1_X
+  CONV_FLASH_FFD1_NAND1_ND2 0 CMOSN  
+ L=.18u  
+ W=.18u         
M_CONV_FLASH_FFD1_NAND1_M5         CONV_FLASH_FFD1_Y CONV_FLASH_FFD1_N62152
+  N116990 N116990 CMOSP  
+ L=.18u  
+ W=.2u         
M_CONV_FLASH_FFD1_NAND2_M5         CONV_FLASH_FFD1_N62128
+  CONV_FLASH_FFD1_N62152 N116990 N116990 CMOSP  
+ L=.18u  
+ W=.2u         
M_CONV_FLASH_FFD1_NAND2_M6         CONV_FLASH_FFD1_N62128
+  CONV_FLASH_FFD1_N62152 CONV_FLASH_FFD1_NAND2_ND2 0 CMOSN  
+ L=.18u  
+ W=.18u         
M_CONV_FLASH_FFD1_NAND2_M2         CONV_FLASH_FFD1_NAND2_ND2 CONV_FLASH_FFD1_X
+  0 0 CMOSN  
+ L=.18u  
+ W=.18u         
M_CONV_FLASH_FFD1_NAND2_M4         CONV_FLASH_FFD1_N62128 CONV_FLASH_FFD1_X
+  N116990 N116990 CMOSP  
+ L=.18u  
+ W=.2u         
M_CONV_FLASH_FFD1_NAND3_M5         CONV_FLASH_FFD1_X CONV_FLASH_FFD1_N62128
+  N116990 N116990 CMOSP  
+ L=.18u  
+ W=.2u         
M_CONV_FLASH_FFD1_NAND3_M6         CONV_FLASH_FFD1_X CONV_FLASH_FFD1_N62128
+  CONV_FLASH_FFD1_NAND3_ND2 0 CMOSN  
+ L=.18u  
+ W=.18u         
M_CONV_FLASH_FFD1_NAND3_M2         CONV_FLASH_FFD1_NAND3_ND2 N116976 0 0 CMOSN 
+  
+ L=.18u  
+ W=.18u         
M_CONV_FLASH_FFD1_NAND3_M4         CONV_FLASH_FFD1_X N116976 N116990 N116990
+  CMOSP  
+ L=.18u  
+ W=.2u         
M_CONV_FLASH_FFD1_NAND4_M5         LSB CONV_FLASH_FFD1_X N116990 N116990 CMOSP 
+  
+ L=.18u  
+ W=.2u         
M_CONV_FLASH_FFD1_NAND4_M6         LSB CONV_FLASH_FFD1_X
+  CONV_FLASH_FFD1_NAND4_ND2 0 CMOSN  
+ L=.18u  
+ W=.18u         
M_CONV_FLASH_FFD1_NAND4_M2         CONV_FLASH_FFD1_NAND4_ND2 N-LSB 0 0 CMOSN  
+ L=.18u  
+ W=.18u         
M_CONV_FLASH_FFD1_NAND4_M4         LSB N-LSB N116990 N116990 CMOSP  
+ L=.18u  
+ W=.2u         
M_CONV_FLASH_FFD1_NAND5_M5         N-LSB LSB N116990 N116990 CMOSP  
+ L=.18u  
+ W=.2u         
M_CONV_FLASH_FFD1_NAND5_M6         N-LSB LSB CONV_FLASH_FFD1_NAND5_ND2 0 CMOSN 
+  
+ L=.18u  
+ W=.18u         
M_CONV_FLASH_FFD1_NAND5_M2         CONV_FLASH_FFD1_NAND5_ND2 CONV_FLASH_FFD1_Y
+  0 0 CMOSN  
+ L=.18u  
+ W=.18u         
M_CONV_FLASH_FFD1_NAND5_M4         N-LSB CONV_FLASH_FFD1_Y N116990 N116990
+  CMOSP  
+ L=.18u  
+ W=.2u         
M_CONV_FLASH_C56_M4         CONV_FLASH_C56_ND+ CONV_FLASH_C56_ND- N116990
+  N116990 CMOSP  
+ L=.2u  
+ W=.6u         
M_CONV_FLASH_C56_M5         CONV_FLASH_C56_NDBIAS N117027 0 0 CMOSN  
+ L=.2u  
+ W=.6u         
M_CONV_FLASH_C56_M6         Q56 CONV_FLASH_C56_ND+ N116990 N116990 CMOSP  
+ L=.2u  
+ W=.8u         
M_CONV_FLASH_C56_M7         Q56 N117027 0 0 CMOSN  
+ L=.2u  
+ W=.4u         
M_CONV_FLASH_C56_M1         CONV_FLASH_C56_ND- N117007 CONV_FLASH_C56_NDBIAS 0
+  CMOSN  
+ L=.2u  
+ W=.4u         
M_CONV_FLASH_C56_M2         CONV_FLASH_C56_ND+ CONV_N119895
+  CONV_FLASH_C56_NDBIAS 0 CMOSN  
+ L=.2u  
+ W=.4u         
M_CONV_FLASH_C56_M3         CONV_FLASH_C56_ND- CONV_FLASH_C56_ND- N116990
+  N116990 CMOSP  
+ L=.2u  
+ W=.6u         
M_CONV_FLASH_C52_M4         CONV_FLASH_C52_ND+ CONV_FLASH_C52_ND- N116990
+  N116990 CMOSP  
+ L=.2u  
+ W=.6u         
M_CONV_FLASH_C52_M5         CONV_FLASH_C52_NDBIAS N117027 0 0 CMOSN  
+ L=.2u  
+ W=.6u         
M_CONV_FLASH_C52_M6         Q52 CONV_FLASH_C52_ND+ N116990 N116990 CMOSP  
+ L=.2u  
+ W=.8u         
M_CONV_FLASH_C52_M7         Q52 N117027 0 0 CMOSN  
+ L=.2u  
+ W=.4u         
M_CONV_FLASH_C52_M1         CONV_FLASH_C52_ND- N117007 CONV_FLASH_C52_NDBIAS 0
+  CMOSN  
+ L=.2u  
+ W=.4u         
M_CONV_FLASH_C52_M2         CONV_FLASH_C52_ND+ CONV_N119907
+  CONV_FLASH_C52_NDBIAS 0 CMOSN  
+ L=.2u  
+ W=.4u         
M_CONV_FLASH_C52_M3         CONV_FLASH_C52_ND- CONV_FLASH_C52_ND- N116990
+  N116990 CMOSP  
+ L=.2u  
+ W=.6u         
M_CONV_FLASH_C59_M4         CONV_FLASH_C59_ND+ CONV_FLASH_C59_ND- N116990
+  N116990 CMOSP  
+ L=.2u  
+ W=.6u         
M_CONV_FLASH_C59_M5         CONV_FLASH_C59_NDBIAS N117027 0 0 CMOSN  
+ L=.2u  
+ W=.6u         
M_CONV_FLASH_C59_M6         Q59 CONV_FLASH_C59_ND+ N116990 N116990 CMOSP  
+ L=.2u  
+ W=.8u         
M_CONV_FLASH_C59_M7         Q59 N117027 0 0 CMOSN  
+ L=.2u  
+ W=.4u         
M_CONV_FLASH_C59_M1         CONV_FLASH_C59_ND- N117007 CONV_FLASH_C59_NDBIAS 0
+  CMOSN  
+ L=.2u  
+ W=.4u         
M_CONV_FLASH_C59_M2         CONV_FLASH_C59_ND+ CONV_N119889
+  CONV_FLASH_C59_NDBIAS 0 CMOSN  
+ L=.2u  
+ W=.4u         
M_CONV_FLASH_C59_M3         CONV_FLASH_C59_ND- CONV_FLASH_C59_ND- N116990
+  N116990 CMOSP  
+ L=.2u  
+ W=.6u         
M_CONV_FLASH_C13_M4         CONV_FLASH_C13_ND+ CONV_FLASH_C13_ND- N116990
+  N116990 CMOSP  
+ L=.2u  
+ W=.6u         
M_CONV_FLASH_C13_M5         CONV_FLASH_C13_NDBIAS N117027 0 0 CMOSN  
+ L=.2u  
+ W=.6u         
M_CONV_FLASH_C13_M6         Q13 CONV_FLASH_C13_ND+ N116990 N116990 CMOSP  
+ L=.2u  
+ W=.8u         
M_CONV_FLASH_C13_M7         Q13 N117027 0 0 CMOSN  
+ L=.2u  
+ W=.4u         
M_CONV_FLASH_C13_M1         CONV_FLASH_C13_ND- N117007 CONV_FLASH_C13_NDBIAS 0
+  CMOSN  
+ L=.2u  
+ W=.4u         
M_CONV_FLASH_C13_M2         CONV_FLASH_C13_ND+ CONV_N117558
+  CONV_FLASH_C13_NDBIAS 0 CMOSN  
+ L=.2u  
+ W=.4u         
M_CONV_FLASH_C13_M3         CONV_FLASH_C13_ND- CONV_FLASH_C13_ND- N116990
+  N116990 CMOSP  
+ L=.2u  
+ W=.6u         
M_CONV_FLASH_C14_M4         CONV_FLASH_C14_ND+ CONV_FLASH_C14_ND- N116990
+  N116990 CMOSP  
+ L=.2u  
+ W=.6u         
M_CONV_FLASH_C14_M5         CONV_FLASH_C14_NDBIAS N117027 0 0 CMOSN  
+ L=.2u  
+ W=.6u         
M_CONV_FLASH_C14_M6         Q14 CONV_FLASH_C14_ND+ N116990 N116990 CMOSP  
+ L=.2u  
+ W=.8u         
M_CONV_FLASH_C14_M7         Q14 N117027 0 0 CMOSN  
+ L=.2u  
+ W=.4u         
M_CONV_FLASH_C14_M1         CONV_FLASH_C14_ND- N117007 CONV_FLASH_C14_NDBIAS 0
+  CMOSN  
+ L=.2u  
+ W=.4u         
M_CONV_FLASH_C14_M2         CONV_FLASH_C14_ND+ CONV_N117556
+  CONV_FLASH_C14_NDBIAS 0 CMOSN  
+ L=.2u  
+ W=.4u         
M_CONV_FLASH_C14_M3         CONV_FLASH_C14_ND- CONV_FLASH_C14_ND- N116990
+  N116990 CMOSP  
+ L=.2u  
+ W=.6u         
M_CONV_FLASH_C12_M4         CONV_FLASH_C12_ND+ CONV_FLASH_C12_ND- N116990
+  N116990 CMOSP  
+ L=.2u  
+ W=.6u         
M_CONV_FLASH_C12_M5         CONV_FLASH_C12_NDBIAS N117027 0 0 CMOSN  
+ L=.2u  
+ W=.6u         
M_CONV_FLASH_C12_M6         Q12 CONV_FLASH_C12_ND+ N116990 N116990 CMOSP  
+ L=.2u  
+ W=.8u         
M_CONV_FLASH_C12_M7         Q12 N117027 0 0 CMOSN  
+ L=.2u  
+ W=.4u         
M_CONV_FLASH_C12_M1         CONV_FLASH_C12_ND- N117007 CONV_FLASH_C12_NDBIAS 0
+  CMOSN  
+ L=.2u  
+ W=.4u         
M_CONV_FLASH_C12_M2         CONV_FLASH_C12_ND+ CONV_N117560
+  CONV_FLASH_C12_NDBIAS 0 CMOSN  
+ L=.2u  
+ W=.4u         
M_CONV_FLASH_C12_M3         CONV_FLASH_C12_ND- CONV_FLASH_C12_ND- N116990
+  N116990 CMOSP  
+ L=.2u  
+ W=.6u         
M_CONV_FLASH_C30_M4         CONV_FLASH_C30_ND+ CONV_FLASH_C30_ND- N116990
+  N116990 CMOSP  
+ L=.2u  
+ W=.6u         
M_CONV_FLASH_C30_M5         CONV_FLASH_C30_NDBIAS N117027 0 0 CMOSN  
+ L=.2u  
+ W=.6u         
M_CONV_FLASH_C30_M6         Q30 CONV_FLASH_C30_ND+ N116990 N116990 CMOSP  
+ L=.2u  
+ W=.8u         
M_CONV_FLASH_C30_M7         Q30 N117027 0 0 CMOSN  
+ L=.2u  
+ W=.4u         
M_CONV_FLASH_C30_M1         CONV_FLASH_C30_ND- N117007 CONV_FLASH_C30_NDBIAS 0
+  CMOSN  
+ L=.2u  
+ W=.4u         
M_CONV_FLASH_C30_M2         CONV_FLASH_C30_ND+ CONV_N117544
+  CONV_FLASH_C30_NDBIAS 0 CMOSN  
+ L=.2u  
+ W=.4u         
M_CONV_FLASH_C30_M3         CONV_FLASH_C30_ND- CONV_FLASH_C30_ND- N116990
+  N116990 CMOSP  
+ L=.2u  
+ W=.6u         
M_CONV_FLASH_C35_M4         CONV_FLASH_C35_ND+ CONV_FLASH_C35_ND- N116990
+  N116990 CMOSP  
+ L=.2u  
+ W=.6u         
M_CONV_FLASH_C35_M5         CONV_FLASH_C35_NDBIAS N117027 0 0 CMOSN  
+ L=.2u  
+ W=.6u         
M_CONV_FLASH_C35_M6         Q35 CONV_FLASH_C35_ND+ N116990 N116990 CMOSP  
+ L=.2u  
+ W=.8u         
M_CONV_FLASH_C35_M7         Q35 N117027 0 0 CMOSN  
+ L=.2u  
+ W=.4u         
M_CONV_FLASH_C35_M1         CONV_FLASH_C35_ND- N117007 CONV_FLASH_C35_NDBIAS 0
+  CMOSN  
+ L=.2u  
+ W=.4u         
M_CONV_FLASH_C35_M2         CONV_FLASH_C35_ND+ CONV_N117514
+  CONV_FLASH_C35_NDBIAS 0 CMOSN  
+ L=.2u  
+ W=.4u         
M_CONV_FLASH_C35_M3         CONV_FLASH_C35_ND- CONV_FLASH_C35_ND- N116990
+  N116990 CMOSP  
+ L=.2u  
+ W=.6u         
M_CONV_FLASH_C39_M4         CONV_FLASH_C39_ND+ CONV_FLASH_C39_ND- N116990
+  N116990 CMOSP  
+ L=.2u  
+ W=.6u         
M_CONV_FLASH_C39_M5         CONV_FLASH_C39_NDBIAS N117027 0 0 CMOSN  
+ L=.2u  
+ W=.6u         
M_CONV_FLASH_C39_M6         Q39 CONV_FLASH_C39_ND+ N116990 N116990 CMOSP  
+ L=.2u  
+ W=.8u         
M_CONV_FLASH_C39_M7         Q39 N117027 0 0 CMOSN  
+ L=.2u  
+ W=.4u         
M_CONV_FLASH_C39_M1         CONV_FLASH_C39_ND- N117007 CONV_FLASH_C39_NDBIAS 0
+  CMOSN  
+ L=.2u  
+ W=.4u         
M_CONV_FLASH_C39_M2         CONV_FLASH_C39_ND+ CONV_N117506
+  CONV_FLASH_C39_NDBIAS 0 CMOSN  
+ L=.2u  
+ W=.4u         
M_CONV_FLASH_C39_M3         CONV_FLASH_C39_ND- CONV_FLASH_C39_ND- N116990
+  N116990 CMOSP  
+ L=.2u  
+ W=.6u         
M_CONV_FLASH_C15_M4         CONV_FLASH_C15_ND+ CONV_FLASH_C15_ND- N116990
+  N116990 CMOSP  
+ L=.2u  
+ W=.6u         
M_CONV_FLASH_C15_M5         CONV_FLASH_C15_NDBIAS N117027 0 0 CMOSN  
+ L=.2u  
+ W=.6u         
M_CONV_FLASH_C15_M6         Q15 CONV_FLASH_C15_ND+ N116990 N116990 CMOSP  
+ L=.2u  
+ W=.8u         
M_CONV_FLASH_C15_M7         Q15 N117027 0 0 CMOSN  
+ L=.2u  
+ W=.4u         
M_CONV_FLASH_C15_M1         CONV_FLASH_C15_ND- N117007 CONV_FLASH_C15_NDBIAS 0
+  CMOSN  
+ L=.2u  
+ W=.4u         
M_CONV_FLASH_C15_M2         CONV_FLASH_C15_ND+ CONV_N117554
+  CONV_FLASH_C15_NDBIAS 0 CMOSN  
+ L=.2u  
+ W=.4u         
M_CONV_FLASH_C15_M3         CONV_FLASH_C15_ND- CONV_FLASH_C15_ND- N116990
+  N116990 CMOSP  
+ L=.2u  
+ W=.6u         
M_CONV_FLASH_C11_M4         CONV_FLASH_C11_ND+ CONV_FLASH_C11_ND- N116990
+  N116990 CMOSP  
+ L=.2u  
+ W=.6u         
M_CONV_FLASH_C11_M5         CONV_FLASH_C11_NDBIAS N117027 0 0 CMOSN  
+ L=.2u  
+ W=.6u         
M_CONV_FLASH_C11_M6         Q11 CONV_FLASH_C11_ND+ N116990 N116990 CMOSP  
+ L=.2u  
+ W=.8u         
M_CONV_FLASH_C11_M7         Q11 N117027 0 0 CMOSN  
+ L=.2u  
+ W=.4u         
M_CONV_FLASH_C11_M1         CONV_FLASH_C11_ND- N117007 CONV_FLASH_C11_NDBIAS 0
+  CMOSN  
+ L=.2u  
+ W=.4u         
M_CONV_FLASH_C11_M2         CONV_FLASH_C11_ND+ CONV_N117562
+  CONV_FLASH_C11_NDBIAS 0 CMOSN  
+ L=.2u  
+ W=.4u         
M_CONV_FLASH_C11_M3         CONV_FLASH_C11_ND- CONV_FLASH_C11_ND- N116990
+  N116990 CMOSP  
+ L=.2u  
+ W=.6u         
M_CONV_FLASH_C6_M4         CONV_FLASH_C6_ND+ CONV_FLASH_C6_ND- N116990 N116990
+  CMOSP  
+ L=.2u  
+ W=.6u         
M_CONV_FLASH_C6_M5         CONV_FLASH_C6_NDBIAS N117027 0 0 CMOSN  
+ L=.2u  
+ W=.6u         
M_CONV_FLASH_C6_M6         Q6 CONV_FLASH_C6_ND+ N116990 N116990 CMOSP  
+ L=.2u  
+ W=.8u         
M_CONV_FLASH_C6_M7         Q6 N117027 0 0 CMOSN  
+ L=.2u  
+ W=.4u         
M_CONV_FLASH_C6_M1         CONV_FLASH_C6_ND- N117007 CONV_FLASH_C6_NDBIAS 0
+  CMOSN  
+ L=.2u  
+ W=.4u         
M_CONV_FLASH_C6_M2         CONV_FLASH_C6_ND+ CONV_N117572 CONV_FLASH_C6_NDBIAS
+  0 CMOSN  
+ L=.2u  
+ W=.4u         
M_CONV_FLASH_C6_M3         CONV_FLASH_C6_ND- CONV_FLASH_C6_ND- N116990 N116990
+  CMOSP  
+ L=.2u  
+ W=.6u         
M_CONV_FLASH_C16_M4         CONV_FLASH_C16_ND+ CONV_FLASH_C16_ND- N116990
+  N116990 CMOSP  
+ L=.2u  
+ W=.6u         
M_CONV_FLASH_C16_M5         CONV_FLASH_C16_NDBIAS N117027 0 0 CMOSN  
+ L=.2u  
+ W=.6u         
M_CONV_FLASH_C16_M6         Q16 CONV_FLASH_C16_ND+ N116990 N116990 CMOSP  
+ L=.2u  
+ W=.8u         
M_CONV_FLASH_C16_M7         Q16 N117027 0 0 CMOSN  
+ L=.2u  
+ W=.4u         
M_CONV_FLASH_C16_M1         CONV_FLASH_C16_ND- N117007 CONV_FLASH_C16_NDBIAS 0
+  CMOSN  
+ L=.2u  
+ W=.4u         
M_CONV_FLASH_C16_M2         CONV_FLASH_C16_ND+ CONV_N117552
+  CONV_FLASH_C16_NDBIAS 0 CMOSN  
+ L=.2u  
+ W=.4u         
M_CONV_FLASH_C16_M3         CONV_FLASH_C16_ND- CONV_FLASH_C16_ND- N116990
+  N116990 CMOSP  
+ L=.2u  
+ W=.6u         
M_CONV_FLASH_C10_M4         CONV_FLASH_C10_ND+ CONV_FLASH_C10_ND- N116990
+  N116990 CMOSP  
+ L=.2u  
+ W=.6u         
M_CONV_FLASH_C10_M5         CONV_FLASH_C10_NDBIAS N117027 0 0 CMOSN  
+ L=.2u  
+ W=.6u         
M_CONV_FLASH_C10_M6         Q10 CONV_FLASH_C10_ND+ N116990 N116990 CMOSP  
+ L=.2u  
+ W=.8u         
M_CONV_FLASH_C10_M7         Q10 N117027 0 0 CMOSN  
+ L=.2u  
+ W=.4u         
M_CONV_FLASH_C10_M1         CONV_FLASH_C10_ND- N117007 CONV_FLASH_C10_NDBIAS 0
+  CMOSN  
+ L=.2u  
+ W=.4u         
M_CONV_FLASH_C10_M2         CONV_FLASH_C10_ND+ CONV_N117580
+  CONV_FLASH_C10_NDBIAS 0 CMOSN  
+ L=.2u  
+ W=.4u         
M_CONV_FLASH_C10_M3         CONV_FLASH_C10_ND- CONV_FLASH_C10_ND- N116990
+  N116990 CMOSP  
+ L=.2u  
+ W=.6u         
M_CONV_FLASH_C53_M4         CONV_FLASH_C53_ND+ CONV_FLASH_C53_ND- N116990
+  N116990 CMOSP  
+ L=.2u  
+ W=.6u         
M_CONV_FLASH_C53_M5         CONV_FLASH_C53_NDBIAS N117027 0 0 CMOSN  
+ L=.2u  
+ W=.6u         
M_CONV_FLASH_C53_M6         Q53 CONV_FLASH_C53_ND+ N116990 N116990 CMOSP  
+ L=.2u  
+ W=.8u         
M_CONV_FLASH_C53_M7         Q53 N117027 0 0 CMOSN  
+ L=.2u  
+ W=.4u         
M_CONV_FLASH_C53_M1         CONV_FLASH_C53_ND- N117007 CONV_FLASH_C53_NDBIAS 0
+  CMOSN  
+ L=.2u  
+ W=.4u         
M_CONV_FLASH_C53_M2         CONV_FLASH_C53_ND+ CONV_N119901
+  CONV_FLASH_C53_NDBIAS 0 CMOSN  
+ L=.2u  
+ W=.4u         
M_CONV_FLASH_C53_M3         CONV_FLASH_C53_ND- CONV_FLASH_C53_ND- N116990
+  N116990 CMOSP  
+ L=.2u  
+ W=.6u         
M_CONV_FLASH_FFD5_NAND6_M5         CONV_FLASH_FFD5_N62152 CONV_FLASH_FFD5_Y
+  N116990 N116990 CMOSP  
+ L=.18u  
+ W=.2u         
M_CONV_FLASH_FFD5_NAND6_M6         CONV_FLASH_FFD5_N62152 CONV_FLASH_FFD5_Y
+  CONV_FLASH_FFD5_NAND6_ND2 0 CMOSN  
+ L=.18u  
+ W=.18u         
M_CONV_FLASH_FFD5_NAND6_M2         CONV_FLASH_FFD5_NAND6_ND2 CONV_FLASH_D-5SB 0
+  0 CMOSN  
+ L=.18u  
+ W=.18u         
M_CONV_FLASH_FFD5_NAND6_M4         CONV_FLASH_FFD5_N62152 CONV_FLASH_D-5SB
+  N116990 N116990 CMOSP  
+ L=.18u  
+ W=.2u         
M_CONV_FLASH_FFD5_NAND1_M2         CONV_FLASH_FFD5_NAND1_ND2 N116976
+  CONV_FLASH_FFD5_NAND1_ND3 0 CMOSN  
+ L=.18u  
+ W=.18u         
M_CONV_FLASH_FFD5_NAND1_M3         CONV_FLASH_FFD5_Y CONV_FLASH_FFD5_X N116990
+  N116990 CMOSP  
+ L=.18u  
+ W=.2u         
M_CONV_FLASH_FFD5_NAND1_M6         CONV_FLASH_FFD5_NAND1_ND3
+  CONV_FLASH_FFD5_N62152 0 0 CMOSN  
+ L=.18u  
+ W=.18u         
M_CONV_FLASH_FFD5_NAND1_M4         CONV_FLASH_FFD5_Y N116976 N116990 N116990
+  CMOSP  
+ L=.18u  
+ W=.2u         
M_CONV_FLASH_FFD5_NAND1_M1         CONV_FLASH_FFD5_Y CONV_FLASH_FFD5_X
+  CONV_FLASH_FFD5_NAND1_ND2 0 CMOSN  
+ L=.18u  
+ W=.18u         
M_CONV_FLASH_FFD5_NAND1_M5         CONV_FLASH_FFD5_Y CONV_FLASH_FFD5_N62152
+  N116990 N116990 CMOSP  
+ L=.18u  
+ W=.2u         
M_CONV_FLASH_FFD5_NAND2_M5         CONV_FLASH_FFD5_N62128
+  CONV_FLASH_FFD5_N62152 N116990 N116990 CMOSP  
+ L=.18u  
+ W=.2u         
M_CONV_FLASH_FFD5_NAND2_M6         CONV_FLASH_FFD5_N62128
+  CONV_FLASH_FFD5_N62152 CONV_FLASH_FFD5_NAND2_ND2 0 CMOSN  
+ L=.18u  
+ W=.18u         
M_CONV_FLASH_FFD5_NAND2_M2         CONV_FLASH_FFD5_NAND2_ND2 CONV_FLASH_FFD5_X
+  0 0 CMOSN  
+ L=.18u  
+ W=.18u         
M_CONV_FLASH_FFD5_NAND2_M4         CONV_FLASH_FFD5_N62128 CONV_FLASH_FFD5_X
+  N116990 N116990 CMOSP  
+ L=.18u  
+ W=.2u         
M_CONV_FLASH_FFD5_NAND3_M5         CONV_FLASH_FFD5_X CONV_FLASH_FFD5_N62128
+  N116990 N116990 CMOSP  
+ L=.18u  
+ W=.2u         
M_CONV_FLASH_FFD5_NAND3_M6         CONV_FLASH_FFD5_X CONV_FLASH_FFD5_N62128
+  CONV_FLASH_FFD5_NAND3_ND2 0 CMOSN  
+ L=.18u  
+ W=.18u         
M_CONV_FLASH_FFD5_NAND3_M2         CONV_FLASH_FFD5_NAND3_ND2 N116976 0 0 CMOSN 
+  
+ L=.18u  
+ W=.18u         
M_CONV_FLASH_FFD5_NAND3_M4         CONV_FLASH_FFD5_X N116976 N116990 N116990
+  CMOSP  
+ L=.18u  
+ W=.2u         
M_CONV_FLASH_FFD5_NAND4_M5         5SB CONV_FLASH_FFD5_X N116990 N116990 CMOSP 
+  
+ L=.18u  
+ W=.2u         
M_CONV_FLASH_FFD5_NAND4_M6         5SB CONV_FLASH_FFD5_X
+  CONV_FLASH_FFD5_NAND4_ND2 0 CMOSN  
+ L=.18u  
+ W=.18u         
M_CONV_FLASH_FFD5_NAND4_M2         CONV_FLASH_FFD5_NAND4_ND2 N-5SB 0 0 CMOSN  
+ L=.18u  
+ W=.18u         
M_CONV_FLASH_FFD5_NAND4_M4         5SB N-5SB N116990 N116990 CMOSP  
+ L=.18u  
+ W=.2u         
M_CONV_FLASH_FFD5_NAND5_M5         N-5SB 5SB N116990 N116990 CMOSP  
+ L=.18u  
+ W=.2u         
M_CONV_FLASH_FFD5_NAND5_M6         N-5SB 5SB CONV_FLASH_FFD5_NAND5_ND2 0 CMOSN 
+  
+ L=.18u  
+ W=.18u         
M_CONV_FLASH_FFD5_NAND5_M2         CONV_FLASH_FFD5_NAND5_ND2 CONV_FLASH_FFD5_Y
+  0 0 CMOSN  
+ L=.18u  
+ W=.18u         
M_CONV_FLASH_FFD5_NAND5_M4         N-5SB CONV_FLASH_FFD5_Y N116990 N116990
+  CMOSP  
+ L=.18u  
+ W=.2u         
M_CONV_FLASH_C22_M4         CONV_FLASH_C22_ND+ CONV_FLASH_C22_ND- N116990
+  N116990 CMOSP  
+ L=.2u  
+ W=.6u         
M_CONV_FLASH_C22_M5         CONV_FLASH_C22_NDBIAS N117027 0 0 CMOSN  
+ L=.2u  
+ W=.6u         
M_CONV_FLASH_C22_M6         Q22 CONV_FLASH_C22_ND+ N116990 N116990 CMOSP  
+ L=.2u  
+ W=.8u         
M_CONV_FLASH_C22_M7         Q22 N117027 0 0 CMOSN  
+ L=.2u  
+ W=.4u         
M_CONV_FLASH_C22_M1         CONV_FLASH_C22_ND- N117007 CONV_FLASH_C22_NDBIAS 0
+  CMOSN  
+ L=.2u  
+ W=.4u         
M_CONV_FLASH_C22_M2         CONV_FLASH_C22_ND+ CONV_N117528
+  CONV_FLASH_C22_NDBIAS 0 CMOSN  
+ L=.2u  
+ W=.4u         
M_CONV_FLASH_C22_M3         CONV_FLASH_C22_ND- CONV_FLASH_C22_ND- N116990
+  N116990 CMOSP  
+ L=.2u  
+ W=.6u         
M_CONV_FLASH_C23_M4         CONV_FLASH_C23_ND+ CONV_FLASH_C23_ND- N116990
+  N116990 CMOSP  
+ L=.2u  
+ W=.6u         
M_CONV_FLASH_C23_M5         CONV_FLASH_C23_NDBIAS N117027 0 0 CMOSN  
+ L=.2u  
+ W=.6u         
M_CONV_FLASH_C23_M6         Q23 CONV_FLASH_C23_ND+ N116990 N116990 CMOSP  
+ L=.2u  
+ W=.8u         
M_CONV_FLASH_C23_M7         Q23 N117027 0 0 CMOSN  
+ L=.2u  
+ W=.4u         
M_CONV_FLASH_C23_M1         CONV_FLASH_C23_ND- N117007 CONV_FLASH_C23_NDBIAS 0
+  CMOSN  
+ L=.2u  
+ W=.4u         
M_CONV_FLASH_C23_M2         CONV_FLASH_C23_ND+ CONV_N117530
+  CONV_FLASH_C23_NDBIAS 0 CMOSN  
+ L=.2u  
+ W=.4u         
M_CONV_FLASH_C23_M3         CONV_FLASH_C23_ND- CONV_FLASH_C23_ND- N116990
+  N116990 CMOSP  
+ L=.2u  
+ W=.6u         
M_CONV_FLASH_C21_M4         CONV_FLASH_C21_ND+ CONV_FLASH_C21_ND- N116990
+  N116990 CMOSP  
+ L=.2u  
+ W=.6u         
M_CONV_FLASH_C21_M5         CONV_FLASH_C21_NDBIAS N117027 0 0 CMOSN  
+ L=.2u  
+ W=.6u         
M_CONV_FLASH_C21_M6         Q21 CONV_FLASH_C21_ND+ N116990 N116990 CMOSP  
+ L=.2u  
+ W=.8u         
M_CONV_FLASH_C21_M7         Q21 N117027 0 0 CMOSN  
+ L=.2u  
+ W=.4u         
M_CONV_FLASH_C21_M1         CONV_FLASH_C21_ND- N117007 CONV_FLASH_C21_NDBIAS 0
+  CMOSN  
+ L=.2u  
+ W=.4u         
M_CONV_FLASH_C21_M2         CONV_FLASH_C21_ND+ CONV_N117526
+  CONV_FLASH_C21_NDBIAS 0 CMOSN  
+ L=.2u  
+ W=.4u         
M_CONV_FLASH_C21_M3         CONV_FLASH_C21_ND- CONV_FLASH_C21_ND- N116990
+  N116990 CMOSP  
+ L=.2u  
+ W=.6u         
M_CONV_FLASH_C1_M4         CONV_FLASH_C1_ND+ CONV_FLASH_C1_ND- N116990 N116990
+  CMOSP  
+ L=.2u  
+ W=.6u         
M_CONV_FLASH_C1_M5         CONV_FLASH_C1_NDBIAS N117027 0 0 CMOSN  
+ L=.2u  
+ W=.6u         
M_CONV_FLASH_C1_M6         Q1 CONV_FLASH_C1_ND+ N116990 N116990 CMOSP  
+ L=.2u  
+ W=.8u         
M_CONV_FLASH_C1_M7         Q1 N117027 0 0 CMOSN  
+ L=.2u  
+ W=.4u         
M_CONV_FLASH_C1_M1         CONV_FLASH_C1_ND- N117007 CONV_FLASH_C1_NDBIAS 0
+  CMOSN  
+ L=.2u  
+ W=.4u         
M_CONV_FLASH_C1_M2         CONV_FLASH_C1_ND+ CONV_N117582 CONV_FLASH_C1_NDBIAS
+  0 CMOSN  
+ L=.2u  
+ W=.4u         
M_CONV_FLASH_C1_M3         CONV_FLASH_C1_ND- CONV_FLASH_C1_ND- N116990 N116990
+  CMOSP  
+ L=.2u  
+ W=.6u         
M_CONV_FLASH_C9_M4         CONV_FLASH_C9_ND+ CONV_FLASH_C9_ND- N116990 N116990
+  CMOSP  
+ L=.2u  
+ W=.6u         
M_CONV_FLASH_C9_M5         CONV_FLASH_C9_NDBIAS N117027 0 0 CMOSN  
+ L=.2u  
+ W=.6u         
M_CONV_FLASH_C9_M6         Q9 CONV_FLASH_C9_ND+ N116990 N116990 CMOSP  
+ L=.2u  
+ W=.8u         
M_CONV_FLASH_C9_M7         Q9 N117027 0 0 CMOSN  
+ L=.2u  
+ W=.4u         
M_CONV_FLASH_C9_M1         CONV_FLASH_C9_ND- N117007 CONV_FLASH_C9_NDBIAS 0
+  CMOSN  
+ L=.2u  
+ W=.4u         
M_CONV_FLASH_C9_M2         CONV_FLASH_C9_ND+ CONV_N117578 CONV_FLASH_C9_NDBIAS
+  0 CMOSN  
+ L=.2u  
+ W=.4u         
M_CONV_FLASH_C9_M3         CONV_FLASH_C9_ND- CONV_FLASH_C9_ND- N116990 N116990
+  CMOSP  
+ L=.2u  
+ W=.6u         
M_CONV_FLASH_DECO_U31_M5         CONV_FLASH_DECO_N568171 Q2 N116990 N116990
+  CMOSP  
+ L=.18u  
+ W=.2u         
M_CONV_FLASH_DECO_U31_M6         CONV_FLASH_DECO_N568171 Q2 0 0 CMOSN  
+ L=.18u  
+ W=.18u         
M_CONV_FLASH_DECO_U16_M5         CONV_FLASH_DECO_N565094 Q16 N116990 N116990
+  CMOSP  
+ L=.18u  
+ W=.2u         
M_CONV_FLASH_DECO_U16_M6         CONV_FLASH_DECO_N565094 Q16 0 0 CMOSN  
+ L=.18u  
+ W=.18u         
M_CONV_FLASH_DECO_U91_M5         CONV_FLASH_DECO_N577856
+  CONV_FLASH_DECO_N578578 N116990 N116990 CMOSP  
+ L=.18u  
+ W=.2u         
M_CONV_FLASH_DECO_U91_M6         CONV_FLASH_DECO_N577856
+  CONV_FLASH_DECO_N578578 CONV_FLASH_DECO_U91_ND2 0 CMOSN  
+ L=.18u  
+ W=.18u         
M_CONV_FLASH_DECO_U91_M2         CONV_FLASH_DECO_U91_ND2 Q31 0 0 CMOSN  
+ L=.18u  
+ W=.18u         
M_CONV_FLASH_DECO_U91_M4         CONV_FLASH_DECO_N577856 Q31 N116990 N116990
+  CMOSP  
+ L=.18u  
+ W=.2u         
M_CONV_FLASH_DECO_U65_M5         CONV_FLASH_DECO_N568485
+  CONV_FLASH_DECO_N7604009 N116990 N116990 CMOSP  
+ L=.18u  
+ W=.2u         
M_CONV_FLASH_DECO_U65_M6         CONV_FLASH_DECO_N568485
+  CONV_FLASH_DECO_N7604009 0 0 CMOSN  
+ L=.18u  
+ W=.18u         
M_CONV_FLASH_DECO_U2_M5         CONV_FLASH_DECO_N259339 CONV_FLASH_D-MSB
+  N116990 N116990 CMOSP  
+ L=.18u  
+ W=.2u         
M_CONV_FLASH_DECO_U2_M6         CONV_FLASH_DECO_N259339 CONV_FLASH_D-MSB 0 0
+  CMOSN  
+ L=.18u  
+ W=.18u         
M_CONV_FLASH_DECO_U96_M5         CONV_FLASH_DECO_N577828
+  CONV_FLASH_DECO_N578514 N116990 N116990 CMOSP  
+ L=.18u  
+ W=.2u         
M_CONV_FLASH_DECO_U96_M6         CONV_FLASH_DECO_N577828
+  CONV_FLASH_DECO_N578514 CONV_FLASH_DECO_U96_ND2 0 CMOSN  
+ L=.18u  
+ W=.18u         
M_CONV_FLASH_DECO_U96_M2         CONV_FLASH_DECO_U96_ND2 Q21 0 0 CMOSN  
+ L=.18u  
+ W=.18u         
M_CONV_FLASH_DECO_U96_M4         CONV_FLASH_DECO_N577828 Q21 N116990 N116990
+  CMOSP  
+ L=.18u  
+ W=.2u         
M_CONV_FLASH_DECO_U109_M5         CONV_FLASH_DECO_N573020 Q48 N116990 N116990
+  CMOSP  
+ L=.18u  
+ W=.2u         
M_CONV_FLASH_DECO_U109_M6         CONV_FLASH_DECO_N573020 Q48 0 0 CMOSN  
+ L=.18u  
+ W=.18u         
M_CONV_FLASH_DECO_U57_M5         CONV_FLASH_DECO_N567883
+  CONV_FLASH_DECO_N567821 N116990 N116990 CMOSP  
+ L=.18u  
+ W=.2u         
M_CONV_FLASH_DECO_U57_M6         CONV_FLASH_DECO_N567883
+  CONV_FLASH_DECO_N567821 CONV_FLASH_DECO_U57_ND2 0 CMOSN  
+ L=.18u  
+ W=.18u         
M_CONV_FLASH_DECO_U57_M2         CONV_FLASH_DECO_U57_ND2 Q46 0 0 CMOSN  
+ L=.18u  
+ W=.18u         
M_CONV_FLASH_DECO_U57_M4         CONV_FLASH_DECO_N567883 Q46 N116990 N116990
+  CMOSP  
+ L=.18u  
+ W=.2u         
M_CONV_FLASH_DECO_U28_M5         CONV_FLASH_DECO_N565380
+  CONV_FLASH_DECO_N565120 N116990 N116990 CMOSP  
+ L=.18u  
+ W=.2u         
M_CONV_FLASH_DECO_U28_M6         CONV_FLASH_DECO_N565380
+  CONV_FLASH_DECO_N565120 CONV_FLASH_DECO_U28_ND2 0 CMOSN  
+ L=.18u  
+ W=.18u         
M_CONV_FLASH_DECO_U28_M2         CONV_FLASH_DECO_U28_ND2 Q44 0 0 CMOSN  
+ L=.18u  
+ W=.18u         
M_CONV_FLASH_DECO_U28_M4         CONV_FLASH_DECO_N565380 Q44 N116990 N116990
+  CMOSP  
+ L=.18u  
+ W=.2u         
M_CONV_FLASH_DECO_U139_M5         CONV_FLASH_DECO_N575374 X4 N116990 N116990
+  CMOSP  
+ L=.18u  
+ W=.2u         
M_CONV_FLASH_DECO_U139_M6         CONV_FLASH_DECO_N575374 X4 0 0 CMOSN  
+ L=.18u  
+ W=.18u         
M_CONV_FLASH_DECO_U74_M5         CONV_FLASH_DECO_N578674 Q12 N116990 N116990
+  CMOSP  
+ L=.18u  
+ W=.2u         
M_CONV_FLASH_DECO_U74_M6         CONV_FLASH_DECO_N578674 Q12 0 0 CMOSN  
+ L=.18u  
+ W=.18u         
M_CONV_FLASH_DECO_U43_M5         CONV_FLASH_DECO_N567821 Q44 N116990 N116990
+  CMOSP  
+ L=.18u  
+ W=.2u         
M_CONV_FLASH_DECO_U43_M6         CONV_FLASH_DECO_N567821 Q44 0 0 CMOSN  
+ L=.18u  
+ W=.18u         
M_CONV_FLASH_DECO_U80_M5         CONV_FLASH_DECO_N578524 Q22 N116990 N116990
+  CMOSP  
+ L=.18u  
+ W=.2u         
M_CONV_FLASH_DECO_U80_M6         CONV_FLASH_DECO_N578524 Q22 0 0 CMOSN  
+ L=.18u  
+ W=.18u         
M_CONV_FLASH_DECO_U14_M5         CONV_FLASH_DECO_N565346 Q4 N116990 N116990
+  CMOSP  
+ L=.18u  
+ W=.2u         
M_CONV_FLASH_DECO_U14_M6         CONV_FLASH_DECO_N565346 Q4 0 0 CMOSN  
+ L=.18u  
+ W=.18u         
M_CONV_FLASH_DECO_U136_M5         CONV_FLASH_DECO_N575328 X1 N116990 N116990
+  CMOSP  
+ L=.18u  
+ W=.2u         
M_CONV_FLASH_DECO_U136_M6         CONV_FLASH_DECO_N575328 X1 0 0 CMOSN  
+ L=.18u  
+ W=.18u         
M_CONV_FLASH_DECO_U116_M5         CONV_FLASH_DECO_N573096 Q62 N116990 N116990
+  CMOSP  
+ L=.18u  
+ W=.2u         
M_CONV_FLASH_DECO_U116_M6         CONV_FLASH_DECO_N573096 Q62 0 0 CMOSN  
+ L=.18u  
+ W=.18u         
M_CONV_FLASH_DECO_U124_M5         CONV_FLASH_DECO_N572214
+  CONV_FLASH_DECO_N572160 N116990 N116990 CMOSP  
+ L=.18u  
+ W=.2u         
M_CONV_FLASH_DECO_U124_M6         CONV_FLASH_DECO_N572214
+  CONV_FLASH_DECO_N572160 CONV_FLASH_DECO_U124_ND2 0 CMOSN  
+ L=.18u  
+ W=.18u         
M_CONV_FLASH_DECO_U124_M2         CONV_FLASH_DECO_U124_ND2 Q47 0 0 CMOSN  
+ L=.18u  
+ W=.18u         
M_CONV_FLASH_DECO_U124_M4         CONV_FLASH_DECO_N572214 Q47 N116990 N116990
+  CMOSP  
+ L=.18u  
+ W=.2u         
M_CONV_FLASH_DECO_U69_M5         CONV_FLASH_DECO_N578608 Q2 N116990 N116990
+  CMOSP  
+ L=.18u  
+ W=.2u         
M_CONV_FLASH_DECO_U69_M6         CONV_FLASH_DECO_N578608 Q2 0 0 CMOSN  
+ L=.18u  
+ W=.18u         
M_CONV_FLASH_DECO_U86_M5         CONV_FLASH_DECO_N577748
+  CONV_FLASH_DECO_N578636 N116990 N116990 CMOSP  
+ L=.18u  
+ W=.2u         
M_CONV_FLASH_DECO_U86_M6         CONV_FLASH_DECO_N577748
+  CONV_FLASH_DECO_N578636 CONV_FLASH_DECO_U86_ND2 0 CMOSN  
+ L=.18u  
+ W=.18u         
M_CONV_FLASH_DECO_U86_M2         CONV_FLASH_DECO_U86_ND2 Q7 0 0 CMOSN  
+ L=.18u  
+ W=.18u         
M_CONV_FLASH_DECO_U86_M4         CONV_FLASH_DECO_N577748 Q7 N116990 N116990
+  CMOSP  
+ L=.18u  
+ W=.2u         
M_CONV_FLASH_DECO_U26_M5         CONV_FLASH_DECO_N564842
+  CONV_FLASH_DECO_N565104 N116990 N116990 CMOSP  
+ L=.18u  
+ W=.2u         
M_CONV_FLASH_DECO_U26_M6         CONV_FLASH_DECO_N564842
+  CONV_FLASH_DECO_N565104 CONV_FLASH_DECO_U26_ND2 0 CMOSN  
+ L=.18u  
+ W=.18u         
M_CONV_FLASH_DECO_U26_M2         CONV_FLASH_DECO_U26_ND2 Q28 0 0 CMOSN  
+ L=.18u  
+ W=.18u         
M_CONV_FLASH_DECO_U26_M4         CONV_FLASH_DECO_N564842 Q28 N116990 N116990
+  CMOSP  
+ L=.18u  
+ W=.2u         
M_CONV_FLASH_DECO_U103_M5         CONV_FLASH_DECO_N572104 Q36 N116990 N116990
+  CMOSP  
+ L=.18u  
+ W=.2u         
M_CONV_FLASH_DECO_U103_M6         CONV_FLASH_DECO_N572104 Q36 0 0 CMOSN  
+ L=.18u  
+ W=.18u         
M_CONV_FLASH_DECO_U37_M5         CONV_FLASH_DECO_N568555 Q24 N116990 N116990
+  CMOSP  
+ L=.18u  
+ W=.2u         
M_CONV_FLASH_DECO_U37_M6         CONV_FLASH_DECO_N568555 Q24 0 0 CMOSN  
+ L=.18u  
+ W=.18u         
M_CONV_FLASH_DECO_U61_M5         CONV_FLASH_DECO_N568303
+  CONV_FLASH_DECO_N567861 N116990 N116990 CMOSP  
+ L=.18u  
+ W=.2u         
M_CONV_FLASH_DECO_U61_M6         CONV_FLASH_DECO_N568303
+  CONV_FLASH_DECO_N567861 CONV_FLASH_DECO_U61_ND2 0 CMOSN  
+ L=.18u  
+ W=.18u         
M_CONV_FLASH_DECO_U61_M2         CONV_FLASH_DECO_U61_ND2 Q62 0 0 CMOSN  
+ L=.18u  
+ W=.18u         
M_CONV_FLASH_DECO_U61_M4         CONV_FLASH_DECO_N568303 Q62 N116990 N116990
+  CMOSP  
+ L=.18u  
+ W=.2u         
M_CONV_FLASH_DECO_U119_M5         CONV_FLASH_DECO_N572186
+  CONV_FLASH_DECO_N572104 N116990 N116990 CMOSP  
+ L=.18u  
+ W=.2u         
M_CONV_FLASH_DECO_U119_M6         CONV_FLASH_DECO_N572186
+  CONV_FLASH_DECO_N572104 CONV_FLASH_DECO_U119_ND2 0 CMOSN  
+ L=.18u  
+ W=.18u         
M_CONV_FLASH_DECO_U119_M2         CONV_FLASH_DECO_U119_ND2 Q37 0 0 CMOSN  
+ L=.18u  
+ W=.18u         
M_CONV_FLASH_DECO_U119_M4         CONV_FLASH_DECO_N572186 Q37 N116990 N116990
+  CMOSP  
+ L=.18u  
+ W=.2u         
M_CONV_FLASH_DECO_U48_M5         CONV_FLASH_DECO_N568271
+  CONV_FLASH_DECO_N568511 N116990 N116990 CMOSP  
+ L=.18u  
+ W=.2u         
M_CONV_FLASH_DECO_U48_M6         CONV_FLASH_DECO_N568271
+  CONV_FLASH_DECO_N568511 CONV_FLASH_DECO_U48_ND2 0 CMOSN  
+ L=.18u  
+ W=.18u         
M_CONV_FLASH_DECO_U48_M2         CONV_FLASH_DECO_U48_ND2 Q10 0 0 CMOSN  
+ L=.18u  
+ W=.18u         
M_CONV_FLASH_DECO_U48_M4         CONV_FLASH_DECO_N568271 Q10 N116990 N116990
+  CMOSP  
+ L=.18u  
+ W=.2u         
M_CONV_FLASH_DECO_U64_M16         CONV_FLASH_DECO_N7604009
+  CONV_FLASH_DECO_N567883 N116990 N116990 CMOSP  
+ L=.18u  
+ W=.2u         
M_CONV_FLASH_DECO_U64_M5         CONV_FLASH_DECO_N7604009
+  CONV_FLASH_DECO_N568303 N116990 N116990 CMOSP  
+ L=.18u  
+ W=.2u         
M_CONV_FLASH_DECO_U64_M11         CONV_FLASH_DECO_N7604009
+  CONV_FLASH_DECO_N567441 N116990 N116990 CMOSP  
+ L=.18u  
+ W=.2u         
M_CONV_FLASH_DECO_U64_M9         CONV_FLASH_DECO_N7604009
+  CONV_FLASH_DECO_N568069 N116990 N116990 CMOSP  
+ L=.18u  
+ W=.2u         
M_CONV_FLASH_DECO_U64_M1         CONV_FLASH_DECO_N7604009
+  CONV_FLASH_DECO_N567441 CONV_FLASH_DECO_U64_ND2 0 CMOSN  
+ L=.18u  
+ W=.18u         
M_CONV_FLASH_DECO_U64_M6         CONV_FLASH_DECO_U64_ND3
+  CONV_FLASH_DECO_N567879 CONV_FLASH_DECO_U64_ND4 0 CMOSN  
+ L=.18u  
+ W=.18u         
M_CONV_FLASH_DECO_U64_M7         CONV_FLASH_DECO_U64_ND4
+  CONV_FLASH_DECO_N567883 CONV_FLASH_DECO_U64_ND5 0 CMOSN  
+ L=.18u  
+ W=.18u         
M_CONV_FLASH_DECO_U64_M12         CONV_FLASH_DECO_N7604009
+  CONV_FLASH_DECO_N568995 N116990 N116990 CMOSP  
+ L=.18u  
+ W=.2u         
M_CONV_FLASH_DECO_U64_M2         CONV_FLASH_DECO_U64_ND2
+  CONV_FLASH_DECO_N567415 CONV_FLASH_DECO_U64_ND3 0 CMOSN  
+ L=.18u  
+ W=.18u         
M_CONV_FLASH_DECO_U64_M13         CONV_FLASH_DECO_U64_ND6
+  CONV_FLASH_DECO_N568069 CONV_FLASH_DECO_U64_ND7 0 CMOSN  
+ L=.18u  
+ W=.18u         
M_CONV_FLASH_DECO_U64_M10         CONV_FLASH_DECO_U64_ND5
+  CONV_FLASH_DECO_N568995 CONV_FLASH_DECO_U64_ND6 0 CMOSN  
+ L=.18u  
+ W=.18u         
M_CONV_FLASH_DECO_U64_M3         CONV_FLASH_DECO_N7604009
+  CONV_FLASH_DECO_N567415 N116990 N116990 CMOSP  
+ L=.18u  
+ W=.2u         
M_CONV_FLASH_DECO_U64_M14         CONV_FLASH_DECO_U64_ND7
+  CONV_FLASH_DECO_N568185 CONV_FLASH_DECO_U64_ND8 0 CMOSN  
+ L=.18u  
+ W=.18u         
M_CONV_FLASH_DECO_U64_M8         CONV_FLASH_DECO_N7604009
+  CONV_FLASH_DECO_N568185 N116990 N116990 CMOSP  
+ L=.18u  
+ W=.2u         
M_CONV_FLASH_DECO_U64_M4         CONV_FLASH_DECO_N7604009
+  CONV_FLASH_DECO_N567879 N116990 N116990 CMOSP  
+ L=.18u  
+ W=.2u         
M_CONV_FLASH_DECO_U64_M15         CONV_FLASH_DECO_U64_ND8
+  CONV_FLASH_DECO_N568303 0 0 CMOSN  
+ L=.18u  
+ W=.18u         
M_CONV_FLASH_DECO_U52_M5         CONV_FLASH_DECO_N568231
+  CONV_FLASH_DECO_N568555 N116990 N116990 CMOSP  
+ L=.18u  
+ W=.2u         
M_CONV_FLASH_DECO_U52_M6         CONV_FLASH_DECO_N568231
+  CONV_FLASH_DECO_N568555 CONV_FLASH_DECO_U52_ND2 0 CMOSN  
+ L=.18u  
+ W=.18u         
M_CONV_FLASH_DECO_U52_M2         CONV_FLASH_DECO_U52_ND2 Q26 0 0 CMOSN  
+ L=.18u  
+ W=.18u         
M_CONV_FLASH_DECO_U52_M4         CONV_FLASH_DECO_N568231 Q26 N116990 N116990
+  CMOSP  
+ L=.18u  
+ W=.2u         
M_CONV_FLASH_DECO_U108_M5         CONV_FLASH_DECO_N572160 Q46 N116990 N116990
+  CMOSP  
+ L=.18u  
+ W=.2u         
M_CONV_FLASH_DECO_U108_M6         CONV_FLASH_DECO_N572160 Q46 0 0 CMOSN  
+ L=.18u  
+ W=.18u         
M_CONV_FLASH_DECO_U35_M5         CONV_FLASH_DECO_N568535 Q16 N116990 N116990
+  CMOSP  
+ L=.18u  
+ W=.2u         
M_CONV_FLASH_DECO_U35_M6         CONV_FLASH_DECO_N568535 Q16 0 0 CMOSN  
+ L=.18u  
+ W=.18u         
M_CONV_FLASH_DECO_U24_M5         CONV_FLASH_DECO_N565404
+  CONV_FLASH_DECO_N565082 N116990 N116990 CMOSP  
+ L=.18u  
+ W=.2u         
M_CONV_FLASH_DECO_U24_M6         CONV_FLASH_DECO_N565404
+  CONV_FLASH_DECO_N565082 CONV_FLASH_DECO_U24_ND2 0 CMOSN  
+ L=.18u  
+ W=.18u         
M_CONV_FLASH_DECO_U24_M2         CONV_FLASH_DECO_U24_ND2 Q12 0 0 CMOSN  
+ L=.18u  
+ W=.18u         
M_CONV_FLASH_DECO_U24_M4         CONV_FLASH_DECO_N565404 Q12 N116990 N116990
+  CMOSP  
+ L=.18u  
+ W=.2u         
M_CONV_FLASH_DECO_U135_M16         X4 CONV_FLASH_DECO_N572634 N116990 N116990
+  CMOSP  
+ L=.18u  
+ W=.2u         
M_CONV_FLASH_DECO_U135_M5         X4 CONV_FLASH_DECO_N572658 N116990 N116990
+  CMOSP  
+ L=.18u  
+ W=.2u         
M_CONV_FLASH_DECO_U135_M11         X4 CONV_FLASH_DECO_N572622 N116990 N116990
+  CMOSP  
+ L=.18u  
+ W=.2u         
M_CONV_FLASH_DECO_U135_M9         X4 CONV_FLASH_DECO_N572642 N116990 N116990
+  CMOSP  
+ L=.18u  
+ W=.2u         
M_CONV_FLASH_DECO_U135_M1         X4 CONV_FLASH_DECO_N572622
+  CONV_FLASH_DECO_U135_ND2 0 CMOSN  
+ L=.18u  
+ W=.18u         
M_CONV_FLASH_DECO_U135_M6         CONV_FLASH_DECO_U135_ND3
+  CONV_FLASH_DECO_N572630 CONV_FLASH_DECO_U135_ND4 0 CMOSN  
+ L=.18u  
+ W=.18u         
M_CONV_FLASH_DECO_U135_M7         CONV_FLASH_DECO_U135_ND4
+  CONV_FLASH_DECO_N572634 CONV_FLASH_DECO_U135_ND5 0 CMOSN  
+ L=.18u  
+ W=.18u         
M_CONV_FLASH_DECO_U135_M12         X4 CONV_FLASH_DECO_N572580 N116990 N116990
+  CMOSP  
+ L=.18u  
+ W=.2u         
M_CONV_FLASH_DECO_U135_M2         CONV_FLASH_DECO_U135_ND2
+  CONV_FLASH_DECO_N572626 CONV_FLASH_DECO_U135_ND3 0 CMOSN  
+ L=.18u  
+ W=.18u         
M_CONV_FLASH_DECO_U135_M13         CONV_FLASH_DECO_U135_ND6
+  CONV_FLASH_DECO_N572642 CONV_FLASH_DECO_U135_ND7 0 CMOSN  
+ L=.18u  
+ W=.18u         
M_CONV_FLASH_DECO_U135_M10         CONV_FLASH_DECO_U135_ND5
+  CONV_FLASH_DECO_N572580 CONV_FLASH_DECO_U135_ND6 0 CMOSN  
+ L=.18u  
+ W=.18u         
M_CONV_FLASH_DECO_U135_M3         X4 CONV_FLASH_DECO_N572626 N116990 N116990
+  CMOSP  
+ L=.18u  
+ W=.2u         
M_CONV_FLASH_DECO_U135_M14         CONV_FLASH_DECO_U135_ND7
+  CONV_FLASH_DECO_N572650 CONV_FLASH_DECO_U135_ND8 0 CMOSN  
+ L=.18u  
+ W=.18u         
M_CONV_FLASH_DECO_U135_M8         X4 CONV_FLASH_DECO_N572650 N116990 N116990
+  CMOSP  
+ L=.18u  
+ W=.2u         
M_CONV_FLASH_DECO_U135_M4         X4 CONV_FLASH_DECO_N572630 N116990 N116990
+  CMOSP  
+ L=.18u  
+ W=.2u         
M_CONV_FLASH_DECO_U135_M15         CONV_FLASH_DECO_U135_ND8
+  CONV_FLASH_DECO_N572658 0 0 CMOSN  
+ L=.18u  
+ W=.18u         
M_CONV_FLASH_DECO_U115_M5         CONV_FLASH_DECO_N573086 Q60 N116990 N116990
+  CMOSP  
+ L=.18u  
+ W=.2u         
M_CONV_FLASH_DECO_U115_M6         CONV_FLASH_DECO_N573086 Q60 0 0 CMOSN  
+ L=.18u  
+ W=.18u         
M_CONV_FLASH_DECO_U90_M5         CONV_FLASH_DECO_N577760
+  CONV_FLASH_DECO_N578686 N116990 N116990 CMOSP  
+ L=.18u  
+ W=.2u         
M_CONV_FLASH_DECO_U90_M6         CONV_FLASH_DECO_N577760
+  CONV_FLASH_DECO_N578686 CONV_FLASH_DECO_U90_ND2 0 CMOSN  
+ L=.18u  
+ W=.18u         
M_CONV_FLASH_DECO_U90_M2         CONV_FLASH_DECO_U90_ND2 Q15 0 0 CMOSN  
+ L=.18u  
+ W=.18u         
M_CONV_FLASH_DECO_U90_M4         CONV_FLASH_DECO_N577760 Q15 N116990 N116990
+  CMOSP  
+ L=.18u  
+ W=.2u         
M_CONV_FLASH_DECO_U95_M5         CONV_FLASH_DECO_N577832
+  CONV_FLASH_DECO_N578524 N116990 N116990 CMOSP  
+ L=.18u  
+ W=.2u         
M_CONV_FLASH_DECO_U95_M6         CONV_FLASH_DECO_N577832
+  CONV_FLASH_DECO_N578524 CONV_FLASH_DECO_U95_ND2 0 CMOSN  
+ L=.18u  
+ W=.18u         
M_CONV_FLASH_DECO_U95_M2         CONV_FLASH_DECO_U95_ND2 Q23 0 0 CMOSN  
+ L=.18u  
+ W=.18u         
M_CONV_FLASH_DECO_U95_M4         CONV_FLASH_DECO_N577832 Q23 N116990 N116990
+  CMOSP  
+ L=.18u  
+ W=.2u         
M_CONV_FLASH_DECO_U133_M5         CONV_FLASH_DECO_N572622
+  CONV_FLASH_DECO_N573020 N116990 N116990 CMOSP  
+ L=.18u  
+ W=.2u         
M_CONV_FLASH_DECO_U133_M6         CONV_FLASH_DECO_N572622
+  CONV_FLASH_DECO_N573020 CONV_FLASH_DECO_U133_ND2 0 CMOSN  
+ L=.18u  
+ W=.18u         
[...]

(CONV_FLASH_C16_ND+)    3.3000        (CONV_FLASH_C16_ND-)    2.8787            

(CONV_FLASH_C17_ND+)    3.3000        (CONV_FLASH_C17_ND-)    2.8787            

(CONV_FLASH_C18_ND+)    3.3000        (CONV_FLASH_C18_ND-)    2.8787            

(CONV_FLASH_C19_ND+)    3.3000        (CONV_FLASH_C19_ND-)    2.8787            

(CONV_FLASH_C20_ND+)    3.3000        (CONV_FLASH_C20_ND-)    2.8787            

(CONV_FLASH_C21_ND+)    3.3000        (CONV_FLASH_C21_ND-)    2.8787            

(CONV_FLASH_C22_ND+)    3.3000        (CONV_FLASH_C22_ND-)    2.8787            

(CONV_FLASH_C23_ND+)    3.3000        (CONV_FLASH_C23_ND-)    2.8787            

(CONV_FLASH_C24_ND+)    3.3000        (CONV_FLASH_C24_ND-)    2.8787            

(CONV_FLASH_C25_ND+)    3.3000        (CONV_FLASH_C25_ND-)    2.8787            

(CONV_FLASH_C26_ND+)    3.3000        (CONV_FLASH_C26_ND-)    2.8787            

(CONV_FLASH_C27_ND+)    3.3000        (CONV_FLASH_C27_ND-)    2.8787            

(CONV_FLASH_C28_ND+)    3.3000        (CONV_FLASH_C28_ND-)    2.8787            

(CONV_FLASH_C29_ND+)    3.3000        (CONV_FLASH_C29_ND-)    2.8787            

(CONV_FLASH_C30_ND+)    3.3000        (CONV_FLASH_C30_ND-)    2.8787            

(CONV_FLASH_C31_ND+)    3.3000        (CONV_FLASH_C31_ND-)    2.8787            

(CONV_FLASH_C32_ND+)    3.3000        (CONV_FLASH_C32_ND-)    2.8787            

(CONV_FLASH_C33_ND+)    3.3000        (CONV_FLASH_C33_ND-)    2.8787            

(CONV_FLASH_C34_ND+)    3.3000        (CONV_FLASH_C34_ND-)    2.8787            

(CONV_FLASH_C35_ND+)    3.3000        (CONV_FLASH_C35_ND-)    2.8787            

(CONV_FLASH_C36_ND+)    3.3000        (CONV_FLASH_C36_ND-)    2.8787            

(CONV_FLASH_C37_ND+)    3.3000        (CONV_FLASH_C37_ND-)    2.8787            

(CONV_FLASH_C38_ND+)    3.3000        (CONV_FLASH_C38_ND-)    2.8787            

(CONV_FLASH_C39_ND+)    3.3000        (CONV_FLASH_C39_ND-)    2.8787            

(CONV_FLASH_C40_ND+)    3.3000        (CONV_FLASH_C40_ND-)    2.8787            

(CONV_FLASH_C41_ND+)    3.3000        (CONV_FLASH_C41_ND-)    2.8787            

(CONV_FLASH_C42_ND+)    3.3000        (CONV_FLASH_C42_ND-)    2.8787            

(CONV_FLASH_C43_ND+)    3.3000        (CONV_FLASH_C43_ND-)    2.8787            

(CONV_FLASH_C44_ND+)    3.3000        (CONV_FLASH_C44_ND-)    2.8787            

(CONV_FLASH_C45_ND+)    3.3000        (CONV_FLASH_C45_ND-)    2.8787            

(CONV_FLASH_C46_ND+)    3.3000        (CONV_FLASH_C46_ND-)    2.8787            

(CONV_FLASH_C47_ND+)    3.3000        (CONV_FLASH_C47_ND-)    2.8787            

(CONV_FLASH_C48_ND+)    3.3000        (CONV_FLASH_C48_ND-)    2.8787            

(CONV_FLASH_C49_ND+)    3.3000        (CONV_FLASH_C49_ND-)    2.8787            

(CONV_FLASH_C50_ND+)    3.3000        (CONV_FLASH_C50_ND-)    2.8787            

(CONV_FLASH_C51_ND+)    3.3000        (CONV_FLASH_C51_ND-)    2.8787            

(CONV_FLASH_C52_ND+)    3.3000        (CONV_FLASH_C52_ND-)    2.8787            

(CONV_FLASH_C53_ND+)    3.3000        (CONV_FLASH_C53_ND-)    2.8787            

(CONV_FLASH_C54_ND+)    3.3000        (CONV_FLASH_C54_ND-)    2.8787            

(CONV_FLASH_C55_ND+)    3.3000        (CONV_FLASH_C55_ND-)    2.8787            

(CONV_FLASH_C56_ND+)    3.3000        (CONV_FLASH_C56_ND-)    2.8787            

(CONV_FLASH_C57_ND+)    3.3000        (CONV_FLASH_C57_ND-)    2.8787            

(CONV_FLASH_C58_ND+)    3.2998        (CONV_FLASH_C58_ND-)    2.8789            

(CONV_FLASH_C59_ND+)    3.2993        (CONV_FLASH_C59_ND-)    2.8794            

(CONV_FLASH_C60_ND+)    3.2975        (CONV_FLASH_C60_ND-)    2.8814            

(CONV_FLASH_C61_ND+)    3.2911        (CONV_FLASH_C61_ND-)    2.8876            

(CONV_FLASH_C62_ND+)    3.2652        (CONV_FLASH_C62_ND-)    2.9026            

(CONV_FLASH_C63_ND+)    2.6815        (CONV_FLASH_C63_ND-)    2.9165            

(CONV_1R-DIV_N169051)     .2000       (CONV_2R-DIV_N169051)     .2000           

(CONV_FLASH_C1_NDBIAS)    2.2986      (CONV_FLASH_C2_NDBIAS)    2.2986          

(CONV_FLASH_C3_NDBIAS)    2.2986      (CONV_FLASH_C4_NDBIAS)    2.2986          

(CONV_FLASH_C5_NDBIAS)    2.2986      (CONV_FLASH_C6_NDBIAS)    2.2986          

(CONV_FLASH_C7_NDBIAS)    2.2986      (CONV_FLASH_C8_NDBIAS)    2.2986          

(CONV_FLASH_C9_NDBIAS)    2.2986      (CONV_FLASH_C10_NDBIAS)    2.2986         

(CONV_FLASH_C11_NDBIAS)    2.2986     (CONV_FLASH_C12_NDBIAS)    2.2986         

(CONV_FLASH_C13_NDBIAS)    2.2986     (CONV_FLASH_C14_NDBIAS)    2.2986         

(CONV_FLASH_C15_NDBIAS)    2.2986     (CONV_FLASH_C16_NDBIAS)    2.2986         

(CONV_FLASH_C17_NDBIAS)    2.2986     (CONV_FLASH_C18_NDBIAS)    2.2986         

(CONV_FLASH_C19_NDBIAS)    2.2986     (CONV_FLASH_C20_NDBIAS)    2.2986         

(CONV_FLASH_C21_NDBIAS)    2.2986     (CONV_FLASH_C22_NDBIAS)    2.2986         

(CONV_FLASH_C23_NDBIAS)    2.2986     (CONV_FLASH_C24_NDBIAS)    2.2986         

(CONV_FLASH_C25_NDBIAS)    2.2986     (CONV_FLASH_C26_NDBIAS)    2.2986         

(CONV_FLASH_C27_NDBIAS)    2.2986     (CONV_FLASH_C28_NDBIAS)    2.2986         

(CONV_FLASH_C29_NDBIAS)    2.2986     (CONV_FLASH_C30_NDBIAS)    2.2986         

(CONV_FLASH_C31_NDBIAS)    2.2986     (CONV_FLASH_C32_NDBIAS)    2.2986         

(CONV_FLASH_C33_NDBIAS)    2.2986     (CONV_FLASH_C34_NDBIAS)    2.2986         

(CONV_FLASH_C35_NDBIAS)    2.2986     (CONV_FLASH_C36_NDBIAS)    2.2986         

(CONV_FLASH_C37_NDBIAS)    2.2986     (CONV_FLASH_C38_NDBIAS)    2.2986         

(CONV_FLASH_C39_NDBIAS)    2.2986     (CONV_FLASH_C40_NDBIAS)    2.2986         

(CONV_FLASH_C41_NDBIAS)    2.2986     (CONV_FLASH_C42_NDBIAS)    2.2986         

(CONV_FLASH_C43_NDBIAS)    2.2986     (CONV_FLASH_C44_NDBIAS)    2.2986         

(CONV_FLASH_C45_NDBIAS)    2.2986     (CONV_FLASH_C46_NDBIAS)    2.2986         

(CONV_FLASH_C47_NDBIAS)    2.2986     (CONV_FLASH_C48_NDBIAS)    2.2986         

(CONV_FLASH_C49_NDBIAS)    2.2986     (CONV_FLASH_C50_NDBIAS)    2.2986         

(CONV_FLASH_C51_NDBIAS)    2.2986     (CONV_FLASH_C52_NDBIAS)    2.2986         

(CONV_FLASH_C53_NDBIAS)    2.2986     (CONV_FLASH_C54_NDBIAS)    2.2986         

(CONV_FLASH_C55_NDBIAS)    2.2986     (CONV_FLASH_C56_NDBIAS)    2.2986         

(CONV_FLASH_C57_NDBIAS)    2.2986     (CONV_FLASH_C58_NDBIAS)    2.2987         

(CONV_FLASH_C59_NDBIAS)    2.2991     (CONV_FLASH_C60_NDBIAS)    2.3005         

(CONV_FLASH_C61_NDBIAS)    2.3047     (CONV_FLASH_C62_NDBIAS)    2.3152         

(CONV_FLASH_C63_NDBIAS)    2.3250     (CONV_FLASH_DECO_U6_ND2) 470.0E-09        

(CONV_FLASH_DECO_U7_ND2)    2.7365    (CONV_FLASH_DECO_U8_ND2)    2.7365        

(CONV_FLASH_DECO_U9_ND2)    2.7365    (CONV_FLASH_FFD1_N62128)    3.3000        

(CONV_FLASH_FFD1_N62152) 939.9E-09    (CONV_FLASH_FFD2_N62128) 939.9E-09        

(CONV_FLASH_FFD2_N62152)    3.3000    (CONV_FLASH_FFD3_N62128) 939.9E-09        

(CONV_FLASH_FFD3_N62152)    3.3000    (CONV_FLASH_FFD4_N62128) 939.9E-09        

(CONV_FLASH_FFD4_N62152)    3.3000    (CONV_FLASH_FFD5_N62128) 939.9E-09        

(CONV_FLASH_FFD5_N62152)    3.3000    (CONV_FLASH_FFD6_N62128) 939.9E-09        

(CONV_FLASH_FFD6_N62152)    3.3000    (CONV_FLASH_DECO_N259199)    3.3000       

(CONV_FLASH_DECO_N259339)    3.3000   (CONV_FLASH_DECO_N259351)    3.3000       

(CONV_FLASH_DECO_N259543)    3.3000   (CONV_FLASH_DECO_N259565)    3.3000       

(CONV_FLASH_DECO_N259605)    3.3000   (CONV_FLASH_DECO_N259627)    3.3000       

(CONV_FLASH_DECO_N259637)    3.3000   (CONV_FLASH_DECO_N259645)    3.3000       

(CONV_FLASH_DECO_N259649)    3.3000   (CONV_FLASH_DECO_N564842)    3.3000       

(CONV_FLASH_DECO_N564920)    3.3000   (CONV_FLASH_DECO_N564924)    3.3000       

(CONV_FLASH_DECO_N565082)    3.3000   (CONV_FLASH_DECO_N565094)    3.3000       

(CONV_FLASH_DECO_N565104)    3.3000   (CONV_FLASH_DECO_N565120)    3.3000       

(CONV_FLASH_DECO_N565130)    3.3000   (CONV_FLASH_DECO_N565340)    3.3000       

(CONV_FLASH_DECO_N565346)    3.3000   (CONV_FLASH_DECO_N565368)    3.3000       

(CONV_FLASH_DECO_N565380)    3.3000   (CONV_FLASH_DECO_N565392)    3.3000       

(CONV_FLASH_DECO_N565404)    3.3000   (CONV_FLASH_DECO_N565416)    3.3000       

(CONV_FLASH_DECO_N565498) 15.04E-06   (CONV_FLASH_DECO_N567401)    3.3000       

(CONV_FLASH_DECO_N567415)    3.3000   (CONV_FLASH_DECO_N567419) 15.04E-06       

(CONV_FLASH_DECO_N567441)    3.3000   (CONV_FLASH_DECO_N567801)    3.3000       

(CONV_FLASH_DECO_N567811)    3.3000   (CONV_FLASH_DECO_N567821)    3.3000       

(CONV_FLASH_DECO_N567831)    3.3000   (CONV_FLASH_DECO_N567841)    3.3000       

(CONV_FLASH_DECO_N567851)    3.3000   (CONV_FLASH_DECO_N567861)    3.3000       

(CONV_FLASH_DECO_N567879)    3.3000   (CONV_FLASH_DECO_N567883)    3.3000       

(CONV_FLASH_DECO_N568069)    3.3000   (CONV_FLASH_DECO_N568171)    3.3000       

(CONV_FLASH_DECO_N568185)    3.3000   (CONV_FLASH_DECO_N568189)    3.3000       

(CONV_FLASH_DECO_N568231)    3.3000   (CONV_FLASH_DECO_N568243)    3.3000       

(CONV_FLASH_DECO_N568251)    3.3000   (CONV_FLASH_DECO_N568263)    3.3000       

(CONV_FLASH_DECO_N568271)    3.3000   (CONV_FLASH_DECO_N568285)    3.3000       

(CONV_FLASH_DECO_N568303)    3.3000   (CONV_FLASH_DECO_N568485)    3.3000       

(CONV_FLASH_DECO_N568499)    3.3000   (CONV_FLASH_DECO_N568511)    3.3000       

(CONV_FLASH_DECO_N568523)    3.3000   (CONV_FLASH_DECO_N568535)    3.3000       

(CONV_FLASH_DECO_N568545)    3.3000   (CONV_FLASH_DECO_N568555)    3.3000       

(CONV_FLASH_DECO_N568565)    3.3000   (CONV_FLASH_DECO_N568995)    3.3000       

(CONV_FLASH_DECO_N569141)    3.3000   (CONV_FLASH_DECO_N572064)    3.3000       

(CONV_FLASH_DECO_N572074)    3.3000   (CONV_FLASH_DECO_N572104)    3.3000       

(CONV_FLASH_DECO_N572124)    3.3000   (CONV_FLASH_DECO_N572134)    3.3000       

(CONV_FLASH_DECO_N572144)    3.3000   (CONV_FLASH_DECO_N572160)    3.3000       

(CONV_FLASH_DECO_N572170)    3.3000   (CONV_FLASH_DECO_N572182)    3.3000       

(CONV_FLASH_DECO_N572186)    3.3000   (CONV_FLASH_DECO_N572190)    3.3000       

(CONV_FLASH_DECO_N572198)    3.3000   (CONV_FLASH_DECO_N572206)    3.3000       

(CONV_FLASH_DECO_N572214)    3.3000   (CONV_FLASH_DECO_N572512)    3.3000       

(CONV_FLASH_DECO_N572580)    3.3000   (CONV_FLASH_DECO_N572622)    3.3000       

(CONV_FLASH_DECO_N572626)    3.3000   (CONV_FLASH_DECO_N572630)    3.3000       

(CONV_FLASH_DECO_N572634)    3.3000   (CONV_FLASH_DECO_N572642)    3.3000       

(CONV_FLASH_DECO_N572650)    3.3000   (CONV_FLASH_DECO_N572658) 1.125E-06       

(CONV_FLASH_DECO_N573020)    3.3000   (CONV_FLASH_DECO_N573036)    3.3000       

(CONV_FLASH_DECO_N573046)    3.3000   (CONV_FLASH_DECO_N573056)    3.3000       

(CONV_FLASH_DECO_N573066)    3.3000   (CONV_FLASH_DECO_N573076)    3.3000       

(CONV_FLASH_DECO_N573086)    3.3000   (CONV_FLASH_DECO_N573096)    3.3000       

(CONV_FLASH_DECO_N575328)    3.3000   (CONV_FLASH_DECO_N575362)    3.3000       

(CONV_FLASH_DECO_N575374) 235.0E-09   (CONV_FLASH_DECO_N575382)    3.3000       

(CONV_FLASH_DECO_N577720)    3.3000   (CONV_FLASH_DECO_N577728)    3.3000       

(CONV_FLASH_DECO_N577736)    3.3000   (CONV_FLASH_DECO_N577748)    3.3000       

(CONV_FLASH_DECO_N577760)    3.3000   (CONV_FLASH_DECO_N577772)    3.3000       

(CONV_FLASH_DECO_N577784)    3.3000   (CONV_FLASH_DECO_N577796)    3.3000       

(CONV_FLASH_DECO_N577814)    3.3000   (CONV_FLASH_DECO_N577818)    3.3000       

(CONV_FLASH_DECO_N577828)    3.3000   (CONV_FLASH_DECO_N577832)    3.3000       

(CONV_FLASH_DECO_N577840)    3.3000   (CONV_FLASH_DECO_N577848)    3.3000       

(CONV_FLASH_DECO_N577856)    3.3000   (CONV_FLASH_DECO_N578480)    3.3000       

(CONV_FLASH_DECO_N578504)    3.3000   (CONV_FLASH_DECO_N578514)    3.3000       

(CONV_FLASH_DECO_N578524)    3.3000   (CONV_FLASH_DECO_N578534)    3.3000       

(CONV_FLASH_DECO_N578552)    3.3000   (CONV_FLASH_DECO_N578562)    3.3000       

(CONV_FLASH_DECO_N578578)    3.3000   (CONV_FLASH_DECO_N578608)    3.3000       

(CONV_FLASH_DECO_N578622)    3.3000   (CONV_FLASH_DECO_N578636)    3.3000       

(CONV_FLASH_DECO_N578650)    3.3000   (CONV_FLASH_DECO_N578662)    3.3000       

(CONV_FLASH_DECO_N578674)    3.3000   (CONV_FLASH_DECO_N578686)    3.3000       

(CONV_FLASH_DECO_N579510)    3.3000   (CONV_FLASH_DECO_N793529)    3.3000       

(CONV_FLASH_DECO_N831024)    3.3000   (CONV_FLASH_DECO_U10_ND2)    2.7365       

(CONV_FLASH_DECO_U12_ND2) 2.820E-06   (CONV_FLASH_DECO_U12_ND3) 1.880E-06       

(CONV_FLASH_DECO_U12_ND4) 939.9E-09   (CONV_FLASH_DECO_U13_ND2) 13.16E-06       

(CONV_FLASH_DECO_U13_ND3) 11.28E-06   (CONV_FLASH_DECO_U13_ND4) 9.399E-06       

(CONV_FLASH_DECO_U13_ND5) 7.519E-06   (CONV_FLASH_DECO_U13_ND6) 5.640E-06       

(CONV_FLASH_DECO_U13_ND7) 3.760E-06   (CONV_FLASH_DECO_U13_ND8) 1.880E-06       

(CONV_FLASH_DECO_U24_ND2)    2.7365   (CONV_FLASH_DECO_U25_ND2)    2.7365       

(CONV_FLASH_DECO_U26_ND2)    2.7365   (CONV_FLASH_DECO_U27_ND2)    2.7365       

(CONV_FLASH_DECO_U28_ND2)    2.7365   (CONV_FLASH_DECO_U29_ND2)    2.7365       

(CONV_FLASH_DECO_U30_ND2)    2.7365   (CONV_FLASH_DECO_U47_ND2)    2.7365       

(CONV_FLASH_DECO_U48_ND2)    2.7365   (CONV_FLASH_DECO_U49_ND2)    2.7365       

(CONV_FLASH_DECO_U50_ND2)    2.7365   (CONV_FLASH_DECO_U51_ND2)    2.7365       

(CONV_FLASH_DECO_U52_ND2)    2.7365   (CONV_FLASH_DECO_U53_ND2)    2.7365       

(CONV_FLASH_DECO_U54_ND2)    2.7365   (CONV_FLASH_DECO_U55_ND2)    2.7365       

(CONV_FLASH_DECO_U56_ND2)    2.7365   (CONV_FLASH_DECO_U57_ND2)    2.7365       

(CONV_FLASH_DECO_U58_ND2)    2.7365   (CONV_FLASH_DECO_U59_ND2)    2.7365       

(CONV_FLASH_DECO_U60_ND2)    2.7365   (CONV_FLASH_DECO_U61_ND2)    2.7364       

(CONV_FLASH_DECO_U62_ND2) 470.0E-09   (CONV_FLASH_DECO_U63_ND2) 13.16E-06       

(CONV_FLASH_DECO_U63_ND3) 11.28E-06   (CONV_FLASH_DECO_U63_ND4) 9.399E-06       

(CONV_FLASH_DECO_U63_ND5) 7.519E-06   (CONV_FLASH_DECO_U63_ND6) 5.640E-06       

(CONV_FLASH_DECO_U63_ND7) 3.760E-06   (CONV_FLASH_DECO_U63_ND8) 1.880E-06       

(CONV_FLASH_DECO_U64_ND2) 13.16E-06   (CONV_FLASH_DECO_U64_ND3) 11.28E-06       

(CONV_FLASH_DECO_U64_ND4) 9.399E-06   (CONV_FLASH_DECO_U64_ND5) 7.519E-06       

(CONV_FLASH_DECO_U64_ND6) 5.639E-06   (CONV_FLASH_DECO_U64_ND7) 3.760E-06       

(CONV_FLASH_DECO_U64_ND8) 1.880E-06   (CONV_FLASH_DECO_U84_ND2)    2.7365       

(CONV_FLASH_DECO_U85_ND2)    2.7365   (CONV_FLASH_DECO_U86_ND2)    2.7365       

(CONV_FLASH_DECO_U87_ND2)    2.7365   (CONV_FLASH_DECO_U88_ND2)    2.7365       

(CONV_FLASH_DECO_U89_ND2)    2.7365   (CONV_FLASH_DECO_U90_ND2)    2.7365       

(CONV_FLASH_DECO_U91_ND2)    2.7365   (CONV_FLASH_DECO_U92_ND2)    2.7365       

(CONV_FLASH_DECO_U93_ND2)    2.7365   (CONV_FLASH_DECO_U94_ND2)    2.7365       

(CONV_FLASH_DECO_U95_ND2)    2.7365   (CONV_FLASH_DECO_U96_ND2)    2.7365       

(CONV_FLASH_DECO_U97_ND2)    2.7365   (CONV_FLASH_DECO_U98_ND2)    2.7365       

(CONV_FLASH_DECO_U99_ND2) 13.16E-06   (CONV_FLASH_DECO_U99_ND3) 11.28E-06       

(CONV_FLASH_DECO_U99_ND4) 9.399E-06   (CONV_FLASH_DECO_U99_ND5) 7.519E-06       

(CONV_FLASH_DECO_U99_ND6) 5.640E-06   (CONV_FLASH_DECO_U99_ND7) 3.760E-06       

(CONV_FLASH_DECO_U99_ND8) 1.880E-06   (CONV_FLASH_DECO_N7604009) 15.04E-06      

(CONV_FLASH_DECO_U100_ND2) 13.16E-06  (CONV_FLASH_DECO_U100_ND3) 11.28E-06      

(CONV_FLASH_DECO_U100_ND4) 9.399E-06  (CONV_FLASH_DECO_U100_ND5) 7.519E-06      

(CONV_FLASH_DECO_U100_ND6) 5.639E-06  (CONV_FLASH_DECO_U100_ND7) 3.760E-06      

(CONV_FLASH_DECO_U100_ND8) 1.880E-06  (CONV_FLASH_DECO_U117_ND2)    2.7365      

(CONV_FLASH_DECO_U118_ND2)    2.7365  (CONV_FLASH_DECO_U119_ND2)    2.7365      

(CONV_FLASH_DECO_U120_ND2)    2.7365  (CONV_FLASH_DECO_U121_ND2)    2.7365      

(CONV_FLASH_DECO_U122_ND2)    2.7365  (CONV_FLASH_DECO_U123_ND2)    2.7365      

(CONV_FLASH_DECO_U124_ND2)    2.7365  (CONV_FLASH_DECO_U125_ND2) 560.9E-09      

(CONV_FLASH_DECO_U126_ND2)    2.7365  (CONV_FLASH_DECO_U127_ND2)    2.7365      

(CONV_FLASH_DECO_U129_ND2)    2.7365  (CONV_FLASH_DECO_U130_ND2)    2.7365      

(CONV_FLASH_DECO_U131_ND2)    2.7365  (CONV_FLASH_DECO_U132_ND2)    2.7365      

(CONV_FLASH_DECO_U133_ND2)    2.7365  (CONV_FLASH_DECO_U134_ND2) 13.16E-06      

(CONV_FLASH_DECO_U134_ND3) 11.28E-06  (CONV_FLASH_DECO_U134_ND4) 9.399E-06      

(CONV_FLASH_DECO_U134_ND5) 7.519E-06  (CONV_FLASH_DECO_U134_ND6) 5.639E-06      

(CONV_FLASH_DECO_U134_ND7) 3.760E-06  (CONV_FLASH_DECO_U134_ND8) 1.880E-06      

(CONV_FLASH_DECO_U135_ND2)    2.7361  (CONV_FLASH_DECO_U135_ND3)    2.6961      

(CONV_FLASH_DECO_U135_ND4)    2.6773  (CONV_FLASH_DECO_U135_ND5)    2.6654      

(CONV_FLASH_DECO_U135_ND6)    2.6567  (CONV_FLASH_DECO_U135_ND7)    2.6499      

(CONV_FLASH_DECO_U135_ND8)    2.6443  (CONV_FLASH_DECO_U140_ND2)    2.7367      

(CONV_FLASH_DECO_U140_ND3)    2.6967  (CONV_FLASH_DECO_U140_ND4)    2.6779      

(CONV_FLASH_FFD1_NAND1_ND2)    2.7798 (CONV_FLASH_FFD1_NAND1_ND3)     .0483     

(CONV_FLASH_FFD1_NAND2_ND2) 2.241E-06 (CONV_FLASH_FFD1_NAND3_ND2)    2.7365     

(CONV_FLASH_FFD1_NAND4_ND2)     .0947 (CONV_FLASH_FFD1_NAND5_ND2) 227.1E-06     

(CONV_FLASH_FFD1_NAND6_ND2) 469.9E-09 (CONV_FLASH_FFD2_NAND1_ND2)    2.7365     

(CONV_FLASH_FFD2_NAND1_ND3) 1.776E-06 (CONV_FLASH_FFD2_NAND2_ND2) 469.9E-09     

(CONV_FLASH_FFD2_NAND3_ND2)     .0537 (CONV_FLASH_FFD2_NAND4_ND2)     .0947     

(CONV_FLASH_FFD2_NAND5_ND2) 227.1E-06 (CONV_FLASH_FFD2_NAND6_ND2)    2.7365     

(CONV_FLASH_FFD3_NAND1_ND2)    2.7365 (CONV_FLASH_FFD3_NAND1_ND3) 1.776E-06     

(CONV_FLASH_FFD3_NAND2_ND2) 469.9E-09 (CONV_FLASH_FFD3_NAND3_ND2)     .0537     

(CONV_FLASH_FFD3_NAND4_ND2)     .0947 (CONV_FLASH_FFD3_NAND5_ND2) 227.1E-06     

(CONV_FLASH_FFD3_NAND6_ND2)    2.7365 (CONV_FLASH_FFD4_NAND1_ND2)    2.7365     

(CONV_FLASH_FFD4_NAND1_ND3) 1.776E-06 (CONV_FLASH_FFD4_NAND2_ND2) 469.9E-09     

(CONV_FLASH_FFD4_NAND3_ND2)     .0537 (CONV_FLASH_FFD4_NAND4_ND2)     .0947     

(CONV_FLASH_FFD4_NAND5_ND2) 227.1E-06 (CONV_FLASH_FFD4_NAND6_ND2)    2.7365     

(CONV_FLASH_FFD5_NAND1_ND2)    2.7365 (CONV_FLASH_FFD5_NAND1_ND3) 1.776E-06     

(CONV_FLASH_FFD5_NAND2_ND2) 469.9E-09 (CONV_FLASH_FFD5_NAND3_ND2)     .0537     

(CONV_FLASH_FFD5_NAND4_ND2)     .0947 (CONV_FLASH_FFD5_NAND5_ND2) 227.1E-06     

(CONV_FLASH_FFD5_NAND6_ND2)    2.7365 (CONV_FLASH_FFD6_NAND1_ND2)    2.7365     

(CONV_FLASH_FFD6_NAND1_ND3) 1.776E-06 (CONV_FLASH_FFD6_NAND2_ND2) 469.9E-09     

(CONV_FLASH_FFD6_NAND3_ND2)     .0537 (CONV_FLASH_FFD6_NAND4_ND2)     .0947     

(CONV_FLASH_FFD6_NAND5_ND2) 227.1E-06 (CONV_FLASH_FFD6_NAND6_ND2)    2.7365 




    VOLTAGE SOURCE CURRENTS
    NAME         CURRENT

    V_Clock      0.000E+00
    V_CONV_1R-DIV_V1   4.500E-06
    V_CONV_2R-DIV_V1   4.500E-06
    V_VBIAS      0.000E+00
    V_VDD       -2.157E-04
    V_VREF      -9.000E-06
    V_VA         0.000E+00

    TOTAL POWER DISSIPATION   7.37E-04  WATTS



          JOB CONCLUDED

**** 04/11/10 19:06:15 ******* PSpice 16.0.0 (July 2006) ****** ID# 0 ********

 ** Profile: "PRUEBA-transient"  [ D:\Documents\TESIS\fiocs\Design\I-FLASH-01\OrCAD\I-FLASH-6BITS\i-flash-6bits-pspicefiles\prueba\tr


 ****     JOB STATISTICS SUMMARY


******************************************************************************



  Total job time (using Solver 1)   =      106.60
