**** Analysis Setup ****

**** 04/09/10 19:14:02 ******* PSpice 16.0.0 (July 2006) ****** ID# 0 ********

 ** Profile: "PRUEBA-transient"  [ D:\Documents\TESIS\fiocs\Design\I-FLASH-01\OrCAD\I-FLASH-6BITS\i-flash-6bits-PSpiceFiles\PRUEBA\tr


 ****     CIRCUIT DESCRIPTION


******************************************************************************




** Creating circuit file "transient.cir" 
** WARNING: THIS AUTOMATICALLY GENERATED FILE MAY BE OVERWRITTEN BY SUBSEQUENT SIMULATIONS

*Libraries: 
* Profile Libraries :
* Local Libraries :
.LIB "../../../i-flash-6bits-pspicefiles/i-flash-6bits.lib" 
* From [PSPICE NETLIST] section of C:\OrCAD\OrCAD_16.0\tools\PSpice\PSpice.ini file:
.lib "nom.lib" 

*Analysis directives: 
.TRAN  0 15n 0 1p 
.OPTIONS NODE
.OPTIONS ITL1= 300
.OPTIONS ITL2= 100
.PROBE V(alias(*)) I(alias(*)) W(alias(*)) D(alias(*)) NOISE(alias(*)) 
.INC "..\PRUEBA.net" 



**** INCLUDING PRUEBA.net ****
* source I-FLASH-6BITS
R_R6         LSB N116990  100k  
R_R7         -MSB N116990  100k  
V_Clock         N116976 0  
+PULSE 0 3 .4u 0.05u 0.05u .4u 1u
R_R8         -5SB N116990  100k  
M_U7_U2_C38_M4         U7_U2_C38_N26867 U7_U2_N716503 N116990 N116990 CMOSP  
+ L=.2u  
+ W=.6u         
M_U7_U2_C38_M5         U7_U2_C38_N27165 N117027 0 0 CMOSN  
+ L=.2u  
+ W=.6u         
M_U7_U2_C38_M6         Q38 U7_U2_C38_N26867 N116990 N116990 CMOSP  
+ L=.2u  
+ W=.8u         
M_U7_U2_C38_M7         Q38 N117027 0 0 CMOSN  
+ L=.2u  
+ W=.4u         
M_U7_U2_C38_M1         U7_U2_N716503 N117007 U7_U2_C38_N27165 0 CMOSN  
+ L=.2u  
+ W=.4u         
M_U7_U2_C38_M2         U7_U2_C38_N26867 U7_N117508 U7_U2_C38_N27165 0 CMOSN  
+ L=.2u  
+ W=.4u         
M_U7_U2_C38_M3         U7_U2_N716503 U7_U2_N716503 N116990 N116990 CMOSP  
+ L=.2u  
+ W=.6u         
M_U7_U2_C5_M4         U7_U2_C5_N26867 U7_U2_N668337 N116990 N116990 CMOSP  
+ L=.2u  
+ W=.6u         
M_U7_U2_C5_M5         U7_U2_C5_N27165 N117027 0 0 CMOSN  
+ L=.2u  
+ W=.6u         
M_U7_U2_C5_M6         Q5 U7_U2_C5_N26867 N116990 N116990 CMOSP  
+ L=.2u  
+ W=.8u         
M_U7_U2_C5_M7         Q5 N117027 0 0 CMOSN  
+ L=.2u  
+ W=.4u         
M_U7_U2_C5_M1         U7_U2_N668337 N117007 U7_U2_C5_N27165 0 CMOSN  
+ L=.2u  
+ W=.4u         
M_U7_U2_C5_M2         U7_U2_C5_N26867 U7_N117574 U7_U2_C5_N27165 0 CMOSN  
+ L=.2u  
+ W=.4u         
M_U7_U2_C5_M3         U7_U2_N668337 U7_U2_N668337 N116990 N116990 CMOSP  
+ L=.2u  
+ W=.6u         
M_U7_U2_C25_M4         U7_U2_C25_N26867 U7_U2_N703011 N116990 N116990 CMOSP  
+ L=.2u  
+ W=.6u         
M_U7_U2_C25_M5         U7_U2_C25_N27165 N117027 0 0 CMOSN  
+ L=.2u  
+ W=.6u         
M_U7_U2_C25_M6         Q25 U7_U2_C25_N26867 N116990 N116990 CMOSP  
+ L=.2u  
+ W=.8u         
M_U7_U2_C25_M7         Q25 N117027 0 0 CMOSN  
+ L=.2u  
+ W=.4u         
M_U7_U2_C25_M1         U7_U2_N703011 N117007 U7_U2_C25_N27165 0 CMOSN  
+ L=.2u  
+ W=.4u         
M_U7_U2_C25_M2         U7_U2_C25_N26867 U7_N117534 U7_U2_C25_N27165 0 CMOSN  
+ L=.2u  
+ W=.4u         
M_U7_U2_C25_M3         U7_U2_N703011 U7_U2_N703011 N116990 N116990 CMOSP  
+ L=.2u  
+ W=.6u         
M_U7_U2_C31_M4         U7_U2_C31_N26867 U7_U2_N707592 N116990 N116990 CMOSP  
+ L=.2u  
+ W=.6u         
M_U7_U2_C31_M5         U7_U2_C31_N27165 N117027 0 0 CMOSN  
+ L=.2u  
+ W=.6u         
M_U7_U2_C31_M6         Q31 U7_U2_C31_N26867 N116990 N116990 CMOSP  
+ L=.2u  
+ W=.8u         
M_U7_U2_C31_M7         Q31 N117027 0 0 CMOSN  
+ L=.2u  
+ W=.4u         
M_U7_U2_C31_M1         U7_U2_N707592 N117007 U7_U2_C31_N27165 0 CMOSN  
+ L=.2u  
+ W=.4u         
M_U7_U2_C31_M2         U7_U2_C31_N26867 U7_N117522 U7_U2_C31_N27165 0 CMOSN  
+ L=.2u  
+ W=.4u         
M_U7_U2_C31_M3         U7_U2_N707592 U7_U2_N707592 N116990 N116990 CMOSP  
+ L=.2u  
+ W=.6u         
M_U7_U2_C8_M4         U7_U2_C8_N26867 U7_U2_N670241 N116990 N116990 CMOSP  
+ L=.2u  
+ W=.6u         
M_U7_U2_C8_M5         U7_U2_C8_N27165 N117027 0 0 CMOSN  
+ L=.2u  
+ W=.6u         
M_U7_U2_C8_M6         Q8 U7_U2_C8_N26867 N116990 N116990 CMOSP  
+ L=.2u  
+ W=.8u         
M_U7_U2_C8_M7         Q8 N117027 0 0 CMOSN  
+ L=.2u  
+ W=.4u         
M_U7_U2_C8_M1         U7_U2_N670241 N117007 U7_U2_C8_N27165 0 CMOSN  
+ L=.2u  
+ W=.4u         
M_U7_U2_C8_M2         U7_U2_C8_N26867 U7_N117576 U7_U2_C8_N27165 0 CMOSN  
+ L=.2u  
+ W=.4u         
M_U7_U2_C8_M3         U7_U2_N670241 U7_U2_N670241 N116990 N116990 CMOSP  
+ L=.2u  
+ W=.6u         
M_U7_U2_C19_M4         U7_U2_C19_N26867 U7_U2_N698685 N116990 N116990 CMOSP  
+ L=.2u  
+ W=.6u         
M_U7_U2_C19_M5         U7_U2_C19_N27165 N117027 0 0 CMOSN  
+ L=.2u  
+ W=.6u         
M_U7_U2_C19_M6         Q19 U7_U2_C19_N26867 N116990 N116990 CMOSP  
+ L=.2u  
+ W=.8u         
M_U7_U2_C19_M7         Q19 N117027 0 0 CMOSN  
+ L=.2u  
+ W=.4u         
M_U7_U2_C19_M1         U7_U2_N698685 N117007 U7_U2_C19_N27165 0 CMOSN  
+ L=.2u  
+ W=.4u         
M_U7_U2_C19_M2         U7_U2_C19_N26867 U7_N117546 U7_U2_C19_N27165 0 CMOSN  
+ L=.2u  
+ W=.4u         
M_U7_U2_C19_M3         U7_U2_N698685 U7_U2_N698685 N116990 N116990 CMOSP  
+ L=.2u  
+ W=.6u         
M_U7_U2_C2_M4         U7_U2_C2_N26867 U7_U2_N667206 N116990 N116990 CMOSP  
+ L=.2u  
+ W=.6u         
M_U7_U2_C2_M5         U7_U2_C2_N27165 N117027 0 0 CMOSN  
+ L=.2u  
+ W=.6u         
M_U7_U2_C2_M6         Q2 U7_U2_C2_N26867 N116990 N116990 CMOSP  
+ L=.2u  
+ W=.8u         
M_U7_U2_C2_M7         Q2 N117027 0 0 CMOSN  
+ L=.2u  
+ W=.4u         
M_U7_U2_C2_M1         U7_U2_N667206 N117007 U7_U2_C2_N27165 0 CMOSN  
+ L=.2u  
+ W=.4u         
M_U7_U2_C2_M2         U7_U2_C2_N26867 U7_N117564 U7_U2_C2_N27165 0 CMOSN  
+ L=.2u  
+ W=.4u         
M_U7_U2_C2_M3         U7_U2_N667206 U7_U2_N667206 N116990 N116990 CMOSP  
+ L=.2u  
+ W=.6u         
M_U7_U2_C46_M4         U7_U2_C46_N26867 U7_U2_N722067 N116990 N116990 CMOSP  
+ L=.2u  
+ W=.6u         
M_U7_U2_C46_M5         U7_U2_C46_N27165 N117027 0 0 CMOSN  
+ L=.2u  
+ W=.6u         
M_U7_U2_C46_M6         Q46 U7_U2_C46_N26867 N116990 N116990 CMOSP  
+ L=.2u  
+ W=.8u         
M_U7_U2_C46_M7         Q46 N117027 0 0 CMOSN  
+ L=.2u  
+ W=.4u         
M_U7_U2_C46_M1         U7_U2_N722067 N117007 U7_U2_C46_N27165 0 CMOSN  
+ L=.2u  
+ W=.4u         
M_U7_U2_C46_M2         U7_U2_C46_N26867 U7_N117494 U7_U2_C46_N27165 0 CMOSN  
+ L=.2u  
+ W=.4u         
M_U7_U2_C46_M3         U7_U2_N722067 U7_U2_N722067 N116990 N116990 CMOSP  
+ L=.2u  
+ W=.6u         
M_U7_U2_C47_M4         U7_U2_C47_N26867 U7_U2_N722793 N116990 N116990 CMOSP  
+ L=.2u  
+ W=.6u         
M_U7_U2_C47_M5         U7_U2_C47_N27165 N117027 0 0 CMOSN  
+ L=.2u  
+ W=.6u         
M_U7_U2_C47_M6         Q47 U7_U2_C47_N26867 N116990 N116990 CMOSP  
+ L=.2u  
+ W=.8u         
M_U7_U2_C47_M7         Q47 N117027 0 0 CMOSN  
+ L=.2u  
+ W=.4u         
M_U7_U2_C47_M1         U7_U2_N722793 N117007 U7_U2_C47_N27165 0 CMOSN  
+ L=.2u  
+ W=.4u         
M_U7_U2_C47_M2         U7_U2_C47_N26867 U7_N117496 U7_U2_C47_N27165 0 CMOSN  
+ L=.2u  
+ W=.4u         
M_U7_U2_C47_M3         U7_U2_N722793 U7_U2_N722793 N116990 N116990 CMOSP  
+ L=.2u  
+ W=.6u         
M_U7_U2_C60_M4         U7_U2_C60_N26867 U7_U2_N732915 N116990 N116990 CMOSP  
+ L=.2u  
+ W=.6u         
M_U7_U2_C60_M5         U7_U2_C60_N27165 N117027 0 0 CMOSN  
+ L=.2u  
+ W=.6u         
M_U7_U2_C60_M6         Q60 U7_U2_C60_N26867 N116990 N116990 CMOSP  
+ L=.2u  
+ W=.8u         
M_U7_U2_C60_M7         Q60 N117027 0 0 CMOSN  
+ L=.2u  
+ W=.4u         
M_U7_U2_C60_M1         U7_U2_N732915 N117007 U7_U2_C60_N27165 0 CMOSN  
+ L=.2u  
+ W=.4u         
M_U7_U2_C60_M2         U7_U2_C60_N26867 U7_N119887 U7_U2_C60_N27165 0 CMOSN  
+ L=.2u  
+ W=.4u         
M_U7_U2_C60_M3         U7_U2_N732915 U7_U2_N732915 N116990 N116990 CMOSP  
+ L=.2u  
+ W=.6u         
M_U7_U2_C45_M4         U7_U2_C45_N26867 U7_U2_N721348 N116990 N116990 CMOSP  
+ L=.2u  
+ W=.6u         
M_U7_U2_C45_M5         U7_U2_C45_N27165 N117027 0 0 CMOSN  
+ L=.2u  
+ W=.6u         
M_U7_U2_C45_M6         Q45 U7_U2_C45_N26867 N116990 N116990 CMOSP  
+ L=.2u  
+ W=.8u         
M_U7_U2_C45_M7         Q45 N117027 0 0 CMOSN  
+ L=.2u  
+ W=.4u         
M_U7_U2_C45_M1         U7_U2_N721348 N117007 U7_U2_C45_N27165 0 CMOSN  
+ L=.2u  
+ W=.4u         
M_U7_U2_C45_M2         U7_U2_C45_N26867 U7_N117492 U7_U2_C45_N27165 0 CMOSN  
+ L=.2u  
+ W=.4u         
M_U7_U2_C45_M3         U7_U2_N721348 U7_U2_N721348 N116990 N116990 CMOSP  
+ L=.2u  
+ W=.6u         
M_U7_U2_C54_M4         U7_U2_C54_N26867 U7_U2_N728097 N116990 N116990 CMOSP  
+ L=.2u  
+ W=.6u         
M_U7_U2_C54_M5         U7_U2_C54_N27165 N117027 0 0 CMOSN  
+ L=.2u  
+ W=.6u         
M_U7_U2_C54_M6         Q54 U7_U2_C54_N26867 N116990 N116990 CMOSP  
+ L=.2u  
+ W=.8u         
M_U7_U2_C54_M7         Q54 N117027 0 0 CMOSN  
+ L=.2u  
+ W=.4u         
M_U7_U2_C54_M1         U7_U2_N728097 N117007 U7_U2_C54_N27165 0 CMOSN  
+ L=.2u  
+ W=.4u         
M_U7_U2_C54_M2         U7_U2_C54_N26867 U7_N119899 U7_U2_C54_N27165 0 CMOSN  
+ L=.2u  
+ W=.4u         
M_U7_U2_C54_M3         U7_U2_N728097 U7_U2_N728097 N116990 N116990 CMOSP  
+ L=.2u  
+ W=.6u         
M_U7_U2_C34_M4         U7_U2_C34_N26867 U7_U2_N713881 N116990 N116990 CMOSP  
+ L=.2u  
+ W=.6u         
M_U7_U2_C34_M5         U7_U2_C34_N27165 N117027 0 0 CMOSN  
+ L=.2u  
+ W=.6u         
M_U7_U2_C34_M6         Q34 U7_U2_C34_N26867 N116990 N116990 CMOSP  
+ L=.2u  
+ W=.8u         
M_U7_U2_C34_M7         Q34 N117027 0 0 CMOSN  
+ L=.2u  
+ W=.4u         
M_U7_U2_C34_M1         U7_U2_N713881 N117007 U7_U2_C34_N27165 0 CMOSN  
+ L=.2u  
+ W=.4u         
M_U7_U2_C34_M2         U7_U2_C34_N26867 U7_N117516 U7_U2_C34_N27165 0 CMOSN  
+ L=.2u  
+ W=.4u         
M_U7_U2_C34_M3         U7_U2_N713881 U7_U2_N713881 N116990 N116990 CMOSP  
+ L=.2u  
+ W=.6u         
M_U7_U2_C26_M4         U7_U2_C26_N26867 U7_U2_N703760 N116990 N116990 CMOSP  
+ L=.2u  
+ W=.6u         
M_U7_U2_C26_M5         U7_U2_C26_N27165 N117027 0 0 CMOSN  
+ L=.2u  
+ W=.6u         
M_U7_U2_C26_M6         Q26 U7_U2_C26_N26867 N116990 N116990 CMOSP  
+ L=.2u  
+ W=.8u         
M_U7_U2_C26_M7         Q26 N117027 0 0 CMOSN  
+ L=.2u  
+ W=.4u         
M_U7_U2_C26_M1         U7_U2_N703760 N117007 U7_U2_C26_N27165 0 CMOSN  
+ L=.2u  
+ W=.4u         
M_U7_U2_C26_M2         U7_U2_C26_N26867 U7_N117536 U7_U2_C26_N27165 0 CMOSN  
+ L=.2u  
+ W=.4u         
M_U7_U2_C26_M3         U7_U2_N703760 U7_U2_N703760 N116990 N116990 CMOSP  
+ L=.2u  
+ W=.6u         
M_U7_U2_C48_M4         U7_U2_C48_N26867 U7_U2_N723528 N116990 N116990 CMOSP  
+ L=.2u  
+ W=.6u         
M_U7_U2_C48_M5         U7_U2_C48_N27165 N117027 0 0 CMOSN  
+ L=.2u  
+ W=.6u         
M_U7_U2_C48_M6         Q48 U7_U2_C48_N26867 N116990 N116990 CMOSP  
+ L=.2u  
+ W=.8u         
M_U7_U2_C48_M7         Q48 N117027 0 0 CMOSN  
+ L=.2u  
+ W=.4u         
M_U7_U2_C48_M1         U7_U2_N723528 N117007 U7_U2_C48_N27165 0 CMOSN  
+ L=.2u  
+ W=.4u         
M_U7_U2_C48_M2         U7_U2_C48_N26867 U7_N117498 U7_U2_C48_N27165 0 CMOSN  
+ L=.2u  
+ W=.4u         
M_U7_U2_C48_M3         U7_U2_N723528 U7_U2_N723528 N116990 N116990 CMOSP  
+ L=.2u  
+ W=.6u         
M_U7_U2_C44_M4         U7_U2_C44_N26867 U7_U2_N720637 N116990 N116990 CMOSP  
+ L=.2u  
+ W=.6u         
M_U7_U2_C44_M5         U7_U2_C44_N27165 N117027 0 0 CMOSN  
+ L=.2u  
+ W=.6u         
M_U7_U2_C44_M6         Q44 U7_U2_C44_N26867 N116990 N116990 CMOSP  
+ L=.2u  
+ W=.8u         
M_U7_U2_C44_M7         Q44 N117027 0 0 CMOSN  
+ L=.2u  
+ W=.4u         
M_U7_U2_C44_M1         U7_U2_N720637 N117007 U7_U2_C44_N27165 0 CMOSN  
+ L=.2u  
+ W=.4u         
M_U7_U2_C44_M2         U7_U2_C44_N26867 U7_N117490 U7_U2_C44_N27165 0 CMOSN  
+ L=.2u  
+ W=.4u         
M_U7_U2_C44_M3         U7_U2_N720637 U7_U2_N720637 N116990 N116990 CMOSP  
+ L=.2u  
+ W=.6u         
M_U7_U2_C7_M4         U7_U2_C7_N26867 U7_U2_N669792 N116990 N116990 CMOSP  
+ L=.2u  
+ W=.6u         
M_U7_U2_C7_M5         U7_U2_C7_N27165 N117027 0 0 CMOSN  
+ L=.2u  
+ W=.6u         
M_U7_U2_C7_M6         Q7 U7_U2_C7_N26867 N116990 N116990 CMOSP  
+ L=.2u  
+ W=.8u         
M_U7_U2_C7_M7         Q7 N117027 0 0 CMOSN  
+ L=.2u  
+ W=.4u         
M_U7_U2_C7_M1         U7_U2_N669792 N117007 U7_U2_C7_N27165 0 CMOSN  
+ L=.2u  
+ W=.4u         
M_U7_U2_C7_M2         U7_U2_C7_N26867 U7_N117570 U7_U2_C7_N27165 0 CMOSN  
+ L=.2u  
+ W=.4u         
M_U7_U2_C7_M3         U7_U2_N669792 U7_U2_N669792 N116990 N116990 CMOSP  
+ L=.2u  
+ W=.6u         
M_U7_U2_C18_M4         U7_U2_C18_N26867 U7_U2_N697991 N116990 N116990 CMOSP  
+ L=.2u  
+ W=.6u         
M_U7_U2_C18_M5         U7_U2_C18_N27165 N117027 0 0 CMOSN  
+ L=.2u  
+ W=.6u         
M_U7_U2_C18_M6         Q18 U7_U2_C18_N26867 N116990 N116990 CMOSP  
+ L=.2u  
+ W=.8u         
M_U7_U2_C18_M7         Q18 N117027 0 0 CMOSN  
+ L=.2u  
+ W=.4u         
M_U7_U2_C18_M1         U7_U2_N697991 N117007 U7_U2_C18_N27165 0 CMOSN  
+ L=.2u  
+ W=.4u         
M_U7_U2_C18_M2         U7_U2_C18_N26867 U7_N117548 U7_U2_C18_N27165 0 CMOSN  
+ L=.2u  
+ W=.4u         
M_U7_U2_C18_M3         U7_U2_N697991 U7_U2_N697991 N116990 N116990 CMOSP  
+ L=.2u  
+ W=.6u         
M_U7_U2_U10_U6_M5         U7_U2_U10_N62152 U7_U2_U10_Y N116990 N116990 CMOSP  
+ L=.18u  
+ W=.2u         
M_U7_U2_U10_U6_M6         U7_U2_U10_N62152 U7_U2_U10_Y U7_U2_U10_U6_N39991 0
+  CMOSN  
+ L=.18u  
+ W=.18u         
M_U7_U2_U10_U6_M2         U7_U2_U10_U6_N39991 U7_U2_D-MSB 0 0 CMOSN  
+ L=.18u  
+ W=.18u         
M_U7_U2_U10_U6_M4         U7_U2_U10_N62152 U7_U2_D-MSB N116990 N116990 CMOSP  
+ L=.18u  
+ W=.2u         
M_U7_U2_U10_U1_M2         U7_U2_U10_U1_N27355 N116976 U7_U2_U10_U1_N27381
+  U7_U2_U10_U1_N27381 CMOSN  
+ L=.18u  
+ W=.18u         
M_U7_U2_U10_U1_M3         U7_U2_U10_Y U7_U2_U10_X N116990 N116990 CMOSP  
+ L=.18u  
+ W=.2u         
M_U7_U2_U10_U1_M6         U7_U2_U10_U1_N27381 U7_U2_U10_N62152 0 0 CMOSN  
+ L=.18u  
+ W=.18u         
M_U7_U2_U10_U1_M4         U7_U2_U10_Y N116976 N116990 N116990 CMOSP  
+ L=.18u  
+ W=.2u         
M_U7_U2_U10_U1_M1         U7_U2_U10_Y U7_U2_U10_X U7_U2_U10_U1_N27355
+  U7_U2_U10_U1_N27355 CMOSN  
+ L=.18u  
+ W=.18u         
M_U7_U2_U10_U1_M5         U7_U2_U10_Y U7_U2_U10_N62152 N116990 N116990 CMOSP  
+ L=.18u  
+ W=.2u         
M_U7_U2_U10_U2_M5         U7_U2_U10_N62128 U7_U2_U10_N62152 N116990 N116990
+  CMOSP  
+ L=.18u  
+ W=.2u         
M_U7_U2_U10_U2_M6         U7_U2_U10_N62128 U7_U2_U10_N62152 U7_U2_U10_U2_N39991
+  0 CMOSN  
+ L=.18u  
+ W=.18u         
M_U7_U2_U10_U2_M2         U7_U2_U10_U2_N39991 U7_U2_U10_X 0 0 CMOSN  
+ L=.18u  
+ W=.18u         
M_U7_U2_U10_U2_M4         U7_U2_U10_N62128 U7_U2_U10_X N116990 N116990 CMOSP  
+ L=.18u  
+ W=.2u         
M_U7_U2_U10_U3_M5         U7_U2_U10_X U7_U2_U10_N62128 N116990 N116990 CMOSP  
+ L=.18u  
+ W=.2u         
M_U7_U2_U10_U3_M6         U7_U2_U10_X U7_U2_U10_N62128 U7_U2_U10_U3_N39991 0
+  CMOSN  
+ L=.18u  
+ W=.18u         
M_U7_U2_U10_U3_M2         U7_U2_U10_U3_N39991 N116976 0 0 CMOSN  
+ L=.18u  
+ W=.18u         
M_U7_U2_U10_U3_M4         U7_U2_U10_X N116976 N116990 N116990 CMOSP  
+ L=.18u  
+ W=.2u         
M_U7_U2_U10_U4_M5         MSB U7_U2_U10_X N116990 N116990 CMOSP  
+ L=.18u  
+ W=.2u         
M_U7_U2_U10_U4_M6         MSB U7_U2_U10_X U7_U2_U10_U4_N39991 0 CMOSN  
+ L=.18u  
+ W=.18u         
M_U7_U2_U10_U4_M2         U7_U2_U10_U4_N39991 -MSB 0 0 CMOSN  
+ L=.18u  
+ W=.18u         
M_U7_U2_U10_U4_M4         MSB -MSB N116990 N116990 CMOSP  
+ L=.18u  
+ W=.2u         
M_U7_U2_U10_U5_M5         -MSB MSB N116990 N116990 CMOSP  
+ L=.18u  
+ W=.2u         
M_U7_U2_U10_U5_M6         -MSB MSB U7_U2_U10_U5_N39991 0 CMOSN  
+ L=.18u  
+ W=.18u         
M_U7_U2_U10_U5_M2         U7_U2_U10_U5_N39991 U7_U2_U10_Y 0 0 CMOSN  
+ L=.18u  
+ W=.18u         
M_U7_U2_U10_U5_M4         -MSB U7_U2_U10_Y N116990 N116990 CMOSP  
+ L=.18u  
+ W=.2u         
M_U7_U2_C4_M4         U7_U2_C4_N26867 U7_U2_N667958 N116990 N116990 CMOSP  
+ L=.2u  
+ W=.6u         
M_U7_U2_C4_M5         U7_U2_C4_N27165 N117027 0 0 CMOSN  
+ L=.2u  
+ W=.6u         
M_U7_U2_C4_M6         Q4 U7_U2_C4_N26867 N116990 N116990 CMOSP  
+ L=.2u  
+ W=.8u         
M_U7_U2_C4_M7         Q4 N117027 0 0 CMOSN  
+ L=.2u  
+ W=.4u         
M_U7_U2_C4_M1         U7_U2_N667958 N117007 U7_U2_C4_N27165 0 CMOSN  
+ L=.2u  
+ W=.4u         
M_U7_U2_C4_M2         U7_U2_C4_N26867 U7_N117566 U7_U2_C4_N27165 0 CMOSN  
+ L=.2u  
+ W=.4u         
M_U7_U2_C4_M3         U7_U2_N667958 U7_U2_N667958 N116990 N116990 CMOSP  
+ L=.2u  
+ W=.6u         
M_U7_U2_C49_M4         U7_U2_C49_N26867 U7_U2_N724271 N116990 N116990 CMOSP  
+ L=.2u  
+ W=.6u         
M_U7_U2_C49_M5         U7_U2_C49_N27165 N117027 0 0 CMOSN  
+ L=.2u  
+ W=.6u         
M_U7_U2_C49_M6         Q49 U7_U2_C49_N26867 N116990 N116990 CMOSP  
+ L=.2u  
+ W=.8u         
M_U7_U2_C49_M7         Q49 N117027 0 0 CMOSN  
+ L=.2u  
+ W=.4u         
M_U7_U2_C49_M1         U7_U2_N724271 N117007 U7_U2_C49_N27165 0 CMOSN  
+ L=.2u  
+ W=.4u         
M_U7_U2_C49_M2         U7_U2_C49_N26867 U7_N117500 U7_U2_C49_N27165 0 CMOSN  
+ L=.2u  
+ W=.4u         
M_U7_U2_C49_M3         U7_U2_N724271 U7_U2_N724271 N116990 N116990 CMOSP  
+ L=.2u  
+ W=.6u         
M_U7_U2_C37_M4         U7_U2_C37_N26867 U7_U2_N715836 N116990 N116990 CMOSP  
+ L=.2u  
+ W=.6u         
M_U7_U2_C37_M5         U7_U2_C37_N27165 N117027 0 0 CMOSN  
+ L=.2u  
+ W=.6u         
M_U7_U2_C37_M6         Q37 U7_U2_C37_N26867 N116990 N116990 CMOSP  
+ L=.2u  
+ W=.8u         
M_U7_U2_C37_M7         Q37 N117027 0 0 CMOSN  
+ L=.2u  
+ W=.4u         
M_U7_U2_C37_M1         U7_U2_N715836 N117007 U7_U2_C37_N27165 0 CMOSN  
+ L=.2u  
+ W=.4u         
M_U7_U2_C37_M2         U7_U2_C37_N26867 U7_N117510 U7_U2_C37_N27165 0 CMOSN  
+ L=.2u  
+ W=.4u         
M_U7_U2_C37_M3         U7_U2_N715836 U7_U2_N715836 N116990 N116990 CMOSP  
+ L=.2u  
+ W=.6u         
M_U7_U2_C43_M4         U7_U2_C43_N26867 U7_U2_N719933 N116990 N116990 CMOSP  
+ L=.2u  
+ W=.6u         
M_U7_U2_C43_M5         U7_U2_C43_N27165 N117027 0 0 CMOSN  
+ L=.2u  
+ W=.6u         
M_U7_U2_C43_M6         Q43 U7_U2_C43_N26867 N116990 N116990 CMOSP  
+ L=.2u  
+ W=.8u         
M_U7_U2_C43_M7         Q43 N117027 0 0 CMOSN  
+ L=.2u  
+ W=.4u         
M_U7_U2_C43_M1         U7_U2_N719933 N117007 U7_U2_C43_N27165 0 CMOSN  
+ L=.2u  
+ W=.4u         
M_U7_U2_C43_M2         U7_U2_C43_N26867 U7_N117488 U7_U2_C43_N27165 0 CMOSN  
+ L=.2u  
+ W=.4u         
M_U7_U2_C43_M3         U7_U2_N719933 U7_U2_N719933 N116990 N116990 CMOSP  
+ L=.2u  
+ W=.6u         
M_U7_U2_C27_M4         U7_U2_C27_N26867 U7_U2_N704514 N116990 N116990 CMOSP  
+ L=.2u  
+ W=.6u         
M_U7_U2_C27_M5         U7_U2_C27_N27165 N117027 0 0 CMOSN  
+ L=.2u  
+ W=.6u         
M_U7_U2_C27_M6         Q27 U7_U2_C27_N26867 N116990 N116990 CMOSP  
+ L=.2u  
+ W=.8u         
M_U7_U2_C27_M7         Q27 N117027 0 0 CMOSN  
+ L=.2u  
+ W=.4u         
M_U7_U2_C27_M1         U7_U2_N704514 N117007 U7_U2_C27_N27165 0 CMOSN  
+ L=.2u  
+ W=.4u         
M_U7_U2_C27_M2         U7_U2_C27_N26867 U7_N117538 U7_U2_C27_N27165 0 CMOSN  
+ L=.2u  
+ W=.4u         
M_U7_U2_C27_M3         U7_U2_N704514 U7_U2_N704514 N116990 N116990 CMOSP  
+ L=.2u  
+ W=.6u         
M_U7_U2_U13_U6_M5         U7_U2_U13_N62152 U7_U2_U13_Y N116990 N116990 CMOSP  
+ L=.18u  
+ W=.2u         
M_U7_U2_U13_U6_M6         U7_U2_U13_N62152 U7_U2_U13_Y U7_U2_U13_U6_N39991 0
+  CMOSN  
+ L=.18u  
+ W=.18u         
M_U7_U2_U13_U6_M2         U7_U2_U13_U6_N39991 U7_U2_D-3SB 0 0 CMOSN  
+ L=.18u  
+ W=.18u         
M_U7_U2_U13_U6_M4         U7_U2_U13_N62152 U7_U2_D-3SB N116990 N116990 CMOSP  
+ L=.18u  
+ W=.2u         
M_U7_U2_U13_U1_M2         U7_U2_U13_U1_N27355 N116976 U7_U2_U13_U1_N27381
+  U7_U2_U13_U1_N27381 CMOSN  
+ L=.18u  
+ W=.18u         
M_U7_U2_U13_U1_M3         U7_U2_U13_Y U7_U2_U13_X N116990 N116990 CMOSP  
+ L=.18u  
+ W=.2u         
M_U7_U2_U13_U1_M6         U7_U2_U13_U1_N27381 U7_U2_U13_N62152 0 0 CMOSN  
+ L=.18u  
+ W=.18u         
M_U7_U2_U13_U1_M4         U7_U2_U13_Y N116976 N116990 N116990 CMOSP  
+ L=.18u  
+ W=.2u         
M_U7_U2_U13_U1_M1         U7_U2_U13_Y U7_U2_U13_X U7_U2_U13_U1_N27355
+  U7_U2_U13_U1_N27355 CMOSN  
+ L=.18u  
+ W=.18u         
M_U7_U2_U13_U1_M5         U7_U2_U13_Y U7_U2_U13_N62152 N116990 N116990 CMOSP  
+ L=.18u  
+ W=.2u         
M_U7_U2_U13_U2_M5         U7_U2_U13_N62128 U7_U2_U13_N62152 N116990 N116990
+  CMOSP  
+ L=.18u  
+ W=.2u         
M_U7_U2_U13_U2_M6         U7_U2_U13_N62128 U7_U2_U13_N62152 U7_U2_U13_U2_N39991
+  0 CMOSN  
+ L=.18u  
+ W=.18u         
M_U7_U2_U13_U2_M2         U7_U2_U13_U2_N39991 U7_U2_U13_X 0 0 CMOSN  
+ L=.18u  
+ W=.18u         
M_U7_U2_U13_U2_M4         U7_U2_U13_N62128 U7_U2_U13_X N116990 N116990 CMOSP  
+ L=.18u  
+ W=.2u         
M_U7_U2_U13_U3_M5         U7_U2_U13_X U7_U2_U13_N62128 N116990 N116990 CMOSP  
+ L=.18u  
+ W=.2u         
M_U7_U2_U13_U3_M6         U7_U2_U13_X U7_U2_U13_N62128 U7_U2_U13_U3_N39991 0
+  CMOSN  
+ L=.18u  
+ W=.18u         
M_U7_U2_U13_U3_M2         U7_U2_U13_U3_N39991 N116976 0 0 CMOSN  
+ L=.18u  
+ W=.18u         
M_U7_U2_U13_U3_M4         U7_U2_U13_X N116976 N116990 N116990 CMOSP  
+ L=.18u  
+ W=.2u         
M_U7_U2_U13_U4_M5         3SB U7_U2_U13_X N116990 N116990 CMOSP  
+ L=.18u  
+ W=.2u         
M_U7_U2_U13_U4_M6         3SB U7_U2_U13_X U7_U2_U13_U4_N39991 0 CMOSN  
+ L=.18u  
+ W=.18u         
M_U7_U2_U13_U4_M2         U7_U2_U13_U4_N39991 -3SB 0 0 CMOSN  
+ L=.18u  
+ W=.18u         
M_U7_U2_U13_U4_M4         3SB -3SB N116990 N116990 CMOSP  
+ L=.18u  
+ W=.2u         
M_U7_U2_U13_U5_M5         -3SB 3SB N116990 N116990 CMOSP  
+ L=.18u  
+ W=.2u         
M_U7_U2_U13_U5_M6         -3SB 3SB U7_U2_U13_U5_N39991 0 CMOSN  
+ L=.18u  
+ W=.18u         
M_U7_U2_U13_U5_M2         U7_U2_U13_U5_N39991 U7_U2_U13_Y 0 0 CMOSN  
+ L=.18u  
+ W=.18u         
M_U7_U2_U13_U5_M4         -3SB U7_U2_U13_Y N116990 N116990 CMOSP  
+ L=.18u  
+ W=.2u         
M_U7_U2_C32_M4         U7_U2_C32_N26867 U7_U2_N708381 N116990 N116990 CMOSP  
+ L=.2u  
+ W=.6u         
M_U7_U2_C32_M5         U7_U2_C32_N27165 N117027 0 0 CMOSN  
+ L=.2u  
+ W=.6u         
M_U7_U2_C32_M6         U7_U2_D-MSB U7_U2_C32_N26867 N116990 N116990 CMOSP  
+ L=.2u  
+ W=.8u         
M_U7_U2_C32_M7         U7_U2_D-MSB N117027 0 0 CMOSN  
+ L=.2u  
+ W=.4u         
M_U7_U2_C32_M1         U7_U2_N708381 N117007 U7_U2_C32_N27165 0 CMOSN  
+ L=.2u  
+ W=.4u         
M_U7_U2_C32_M2         U7_U2_C32_N26867 U7_N117520 U7_U2_C32_N27165 0 CMOSN  
+ L=.2u  
+ W=.4u         
M_U7_U2_C32_M3         U7_U2_N708381 U7_U2_N708381 N116990 N116990 CMOSP  
+ L=.2u  
+ W=.6u         
M_U7_U2_C58_M4         U7_U2_C58_N26867 U7_U2_N731282 N116990 N116990 CMOSP  
+ L=.2u  
+ W=.6u         
M_U7_U2_C58_M5         U7_U2_C58_N27165 N117027 0 0 CMOSN  
+ L=.2u  
+ W=.6u         
M_U7_U2_C58_M6         Q58 U7_U2_C58_N26867 N116990 N116990 CMOSP  
+ L=.2u  
+ W=.8u         
M_U7_U2_C58_M7         Q58 N117027 0 0 CMOSN  
+ L=.2u  
+ W=.4u         
M_U7_U2_C58_M1         U7_U2_N731282 N117007 U7_U2_C58_N27165 0 CMOSN  
+ L=.2u  
+ W=.4u         
M_U7_U2_C58_M2         U7_U2_C58_N26867 U7_N119891 U7_U2_C58_N27165 0 CMOSN  
+ L=.2u  
+ W=.4u         
M_U7_U2_C58_M3         U7_U2_N731282 U7_U2_N731282 N116990 N116990 CMOSP  
+ L=.2u  
+ W=.6u         
M_U7_U2_C17_M4         U7_U2_C17_N26867 U7_U2_N697303 N116990 N116990 CMOSP  
+ L=.2u  
+ W=.6u         
M_U7_U2_C17_M5         U7_U2_C17_N27165 N117027 0 0 CMOSN  
+ L=.2u  
+ W=.6u         
M_U7_U2_C17_M6         Q17 U7_U2_C17_N26867 N116990 N116990 CMOSP  
+ L=.2u  
+ W=.8u         
M_U7_U2_C17_M7         Q17 N117027 0 0 CMOSN  
+ L=.2u  
+ W=.4u         
M_U7_U2_C17_M1         U7_U2_N697303 N117007 U7_U2_C17_N27165 0 CMOSN  
+ L=.2u  
+ W=.4u         
M_U7_U2_C17_M2         U7_U2_C17_N26867 U7_N117550 U7_U2_C17_N27165 0 CMOSN  
+ L=.2u  
+ W=.4u         
M_U7_U2_C17_M3         U7_U2_N697303 U7_U2_N697303 N116990 N116990 CMOSP  
+ L=.2u  
+ W=.6u         
M_U7_U2_C42_M4         U7_U2_C42_N26867 U7_U2_N719235 N116990 N116990 CMOSP  
+ L=.2u  
+ W=.6u         
M_U7_U2_C42_M5         U7_U2_C42_N27165 N117027 0 0 CMOSN  
+ L=.2u  
+ W=.6u         
M_U7_U2_C42_M6         Q42 U7_U2_C42_N26867 N116990 N116990 CMOSP  
+ L=.2u  
+ W=.8u         
M_U7_U2_C42_M7         Q42 N117027 0 0 CMOSN  
+ L=.2u  
+ W=.4u         
M_U7_U2_C42_M1         U7_U2_N719235 N117007 U7_U2_C42_N27165 0 CMOSN  
+ L=.2u  
+ W=.4u         
M_U7_U2_C42_M2         U7_U2_C42_N26867 U7_N117486 U7_U2_C42_N27165 0 CMOSN  
+ L=.2u  
+ W=.4u         
M_U7_U2_C42_M3         U7_U2_N719235 U7_U2_N719235 N116990 N116990 CMOSP  
+ L=.2u  
+ W=.6u         
M_U7_U2_C50_M4         U7_U2_C50_N26867 U7_U2_N725021 N116990 N116990 CMOSP  
+ L=.2u  
+ W=.6u         
M_U7_U2_C50_M5         U7_U2_C50_N27165 N117027 0 0 CMOSN  
+ L=.2u  
+ W=.6u         
M_U7_U2_C50_M6         Q50 U7_U2_C50_N26867 N116990 N116990 CMOSP  
+ L=.2u  
+ W=.8u         
M_U7_U2_C50_M7         Q50 N117027 0 0 CMOSN  
+ L=.2u  
+ W=.4u         
M_U7_U2_C50_M1         U7_U2_N725021 N117007 U7_U2_C50_N27165 0 CMOSN  
+ L=.2u  
+ W=.4u         
M_U7_U2_C50_M2         U7_U2_C50_N26867 U7_N119903 U7_U2_C50_N27165 0 CMOSN  
+ L=.2u  
+ W=.4u         
M_U7_U2_C50_M3         U7_U2_N725021 U7_U2_N725021 N116990 N116990 CMOSP  
+ L=.2u  
+ W=.6u         
M_U7_U2_C55_M4         U7_U2_C55_N26867 U7_U2_N728884 N116990 N116990 CMOSP  
+ L=.2u  
+ W=.6u         
M_U7_U2_C55_M5         U7_U2_C55_N27165 N117027 0 0 CMOSN  
+ L=.2u  
+ W=.6u         
M_U7_U2_C55_M6         Q55 U7_U2_C55_N26867 N116990 N116990 CMOSP  
+ L=.2u  
+ W=.8u         
M_U7_U2_C55_M7         Q55 N117027 0 0 CMOSN  
+ L=.2u  
+ W=.4u         
M_U7_U2_C55_M1         U7_U2_N728884 N117007 U7_U2_C55_N27165 0 CMOSN  
+ L=.2u  
+ W=.4u         
M_U7_U2_C55_M2         U7_U2_C55_N26867 U7_N119897 U7_U2_C55_N27165 0 CMOSN  
+ L=.2u  
+ W=.4u         
M_U7_U2_C55_M3         U7_U2_N728884 U7_U2_N728884 N116990 N116990 CMOSP  
+ L=.2u  
+ W=.6u         
M_U7_U2_C3_M4         U7_U2_C3_N26867 U7_U2_N667581 N116990 N116990 CMOSP  
+ L=.2u  
+ W=.6u         
M_U7_U2_C3_M5         U7_U2_C3_N27165 N117027 0 0 CMOSN  
+ L=.2u  
+ W=.6u         
M_U7_U2_C3_M6         Q3 U7_U2_C3_N26867 N116990 N116990 CMOSP  
+ L=.2u  
+ W=.8u         
M_U7_U2_C3_M7         Q3 N117027 0 0 CMOSN  
+ L=.2u  
+ W=.4u         
M_U7_U2_C3_M1         U7_U2_N667581 N117007 U7_U2_C3_N27165 0 CMOSN  
+ L=.2u  
+ W=.4u         
M_U7_U2_C3_M2         U7_U2_C3_N26867 U7_N117568 U7_U2_C3_N27165 0 CMOSN  
+ L=.2u  
+ W=.4u         
M_U7_U2_C3_M3         U7_U2_N667581 U7_U2_N667581 N116990 N116990 CMOSP  
+ L=.2u  
+ W=.6u         
M_U7_U2_C28_M4         U7_U2_C28_N26867 U7_U2_N705273 N116990 N116990 CMOSP  
+ L=.2u  
+ W=.6u         
M_U7_U2_C28_M5         U7_U2_C28_N27165 N117027 0 0 CMOSN  
+ L=.2u  
+ W=.6u         
M_U7_U2_C28_M6         Q28 U7_U2_C28_N26867 N116990 N116990 CMOSP  
+ L=.2u  
+ W=.8u         
M_U7_U2_C28_M7         Q28 N117027 0 0 CMOSN  
+ L=.2u  
+ W=.4u         
M_U7_U2_C28_M1         U7_U2_N705273 N117007 U7_U2_C28_N27165 0 CMOSN  
+ L=.2u  
+ W=.4u         
M_U7_U2_C28_M2         U7_U2_C28_N26867 U7_N117540 U7_U2_C28_N27165 0 CMOSN  
+ L=.2u  
+ W=.4u         
M_U7_U2_C28_M3         U7_U2_N705273 U7_U2_N705273 N116990 N116990 CMOSP  
+ L=.2u  
+ W=.6u         
M_U7_U2_C63_M4         U7_U2_C63_N26867 U7_U2_N735410 N116990 N116990 CMOSP  
+ L=.2u  
+ W=.6u         
M_U7_U2_C63_M5         U7_U2_C63_N27165 N117027 0 0 CMOSN  
+ L=.2u  
+ W=.6u         
M_U7_U2_C63_M6         Q63 U7_U2_C63_N26867 N116990 N116990 CMOSP  
+ L=.2u  
+ W=.8u         
M_U7_U2_C63_M7         Q63 N117027 0 0 CMOSN  
+ L=.2u  
+ W=.4u         
M_U7_U2_C63_M1         U7_U2_N735410 N117007 U7_U2_C63_N27165 0 CMOSN  
+ L=.2u  
+ W=.4u         
M_U7_U2_C63_M2         U7_U2_C63_N26867 U7_N119881 U7_U2_C63_N27165 0 CMOSN  
+ L=.2u  
+ W=.4u         
M_U7_U2_C63_M3         U7_U2_N735410 U7_U2_N735410 N116990 N116990 CMOSP  
+ L=.2u  
+ W=.6u         
M_U7_U2_C41_M4         U7_U2_C41_N26867 U7_U2_N718542 N116990 N116990 CMOSP  
+ L=.2u  
+ W=.6u         
M_U7_U2_C41_M5         U7_U2_C41_N27165 N117027 0 0 CMOSN  
+ L=.2u  
+ W=.6u         
M_U7_U2_C41_M6         Q41 U7_U2_C41_N26867 N116990 N116990 CMOSP  
+ L=.2u  
+ W=.8u         
M_U7_U2_C41_M7         Q41 N117027 0 0 CMOSN  
+ L=.2u  
+ W=.4u         
M_U7_U2_C41_M1         U7_U2_N718542 N117007 U7_U2_C41_N27165 0 CMOSN  
+ L=.2u  
+ W=.4u         
M_U7_U2_C41_M2         U7_U2_C41_N26867 U7_N117502 U7_U2_C41_N27165 0 CMOSN  
+ L=.2u  
+ W=.4u         
M_U7_U2_C41_M3         U7_U2_N718542 U7_U2_N718542 N116990 N116990 CMOSP  
+ L=.2u  
+ W=.6u         
M_U7_U2_C33_M4         U7_U2_C33_N26867 U7_U2_N713243 N116990 N116990 CMOSP  
+ L=.2u  
+ W=.6u         
M_U7_U2_C33_M5         U7_U2_C33_N27165 N117027 0 0 CMOSN  
+ L=.2u  
+ W=.6u         
M_U7_U2_C33_M6         Q33 U7_U2_C33_N26867 N116990 N116990 CMOSP  
+ L=.2u  
+ W=.8u         
M_U7_U2_C33_M7         Q33 N117027 0 0 CMOSN  
+ L=.2u  
+ W=.4u         
M_U7_U2_C33_M1         U7_U2_N713243 N117007 U7_U2_C33_N27165 0 CMOSN  
+ L=.2u  
+ W=.4u         
M_U7_U2_C33_M2         U7_U2_C33_N26867 U7_N117518 U7_U2_C33_N27165 0 CMOSN  
+ L=.2u  
+ W=.4u         
M_U7_U2_C33_M3         U7_U2_N713243 U7_U2_N713243 N116990 N116990 CMOSP  
+ L=.2u  
+ W=.6u         
M_U7_U2_C51_M4         U7_U2_C51_N26867 U7_U2_N725779 N116990 N116990 CMOSP  
+ L=.2u  
+ W=.6u         
M_U7_U2_C51_M5         U7_U2_C51_N27165 N117027 0 0 CMOSN  
+ L=.2u  
+ W=.6u         
M_U7_U2_C51_M6         Q51 U7_U2_C51_N26867 N116990 N116990 CMOSP  
+ L=.2u  
+ W=.8u         
M_U7_U2_C51_M7         Q51 N117027 0 0 CMOSN  
+ L=.2u  
+ W=.4u         
M_U7_U2_C51_M1         U7_U2_N725779 N117007 U7_U2_C51_N27165 0 CMOSN  
+ L=.2u  
+ W=.4u         
M_U7_U2_C51_M2         U7_U2_C51_N26867 U7_N119905 U7_U2_C51_N27165 0 CMOSN  
+ L=.2u  
+ W=.4u         
M_U7_U2_C51_M3         U7_U2_N725779 U7_U2_N725779 N116990 N116990 CMOSP  
+ L=.2u  
+ W=.6u         
M_U7_U2_C36_M4         U7_U2_C36_N26867 U7_U2_N715178 N116990 N116990 CMOSP  
+ L=.2u  
+ W=.6u         
M_U7_U2_C36_M5         U7_U2_C36_N27165 N117027 0 0 CMOSN  
+ L=.2u  
+ W=.6u         
M_U7_U2_C36_M6         Q36 U7_U2_C36_N26867 N116990 N116990 CMOSP  
+ L=.2u  
+ W=.8u         
M_U7_U2_C36_M7         Q36 N117027 0 0 CMOSN  
+ L=.2u  
+ W=.4u         
M_U7_U2_C36_M1         U7_U2_N715178 N117007 U7_U2_C36_N27165 0 CMOSN  
+ L=.2u  
+ W=.4u         
M_U7_U2_C36_M2         U7_U2_C36_N26867 U7_N117512 U7_U2_C36_N27165 0 CMOSN  
+ L=.2u  
+ W=.4u         
M_U7_U2_C36_M3         U7_U2_N715178 U7_U2_N715178 N116990 N116990 CMOSP  
+ L=.2u  
+ W=.6u         
M_U7_U2_C61_M4         U7_U2_C61_N26867 U7_U2_N733741 N116990 N116990 CMOSP  
+ L=.2u  
+ W=.6u         
M_U7_U2_C61_M5         U7_U2_C61_N27165 N117027 0 0 CMOSN  
+ L=.2u  
+ W=.6u         
M_U7_U2_C61_M6         Q61 U7_U2_C61_N26867 N116990 N116990 CMOSP  
+ L=.2u  
+ W=.8u         
M_U7_U2_C61_M7         Q61 N117027 0 0 CMOSN  
+ L=.2u  
+ W=.4u         
M_U7_U2_C61_M1         U7_U2_N733741 N117007 U7_U2_C61_N27165 0 CMOSN  
+ L=.2u  
+ W=.4u         
M_U7_U2_C61_M2         U7_U2_C61_N26867 U7_N119885 U7_U2_C61_N27165 0 CMOSN  
+ L=.2u  
+ W=.4u         
M_U7_U2_C61_M3         U7_U2_N733741 U7_U2_N733741 N116990 N116990 CMOSP  
+ L=.2u  
+ W=.6u         
M_U7_U2_U12_U6_M5         U7_U2_U12_N62152 U7_U2_U12_Y N116990 N116990 CMOSP  
+ L=.18u  
+ W=.2u         
M_U7_U2_U12_U6_M6         U7_U2_U12_N62152 U7_U2_U12_Y U7_U2_U12_U6_N39991 0
+  CMOSN  
+ L=.18u  
+ W=.18u         
M_U7_U2_U12_U6_M2         U7_U2_U12_U6_N39991 U7_U2_D-4SB 0 0 CMOSN  
+ L=.18u  
+ W=.18u         
M_U7_U2_U12_U6_M4         U7_U2_U12_N62152 U7_U2_D-4SB N116990 N116990 CMOSP  
+ L=.18u  
+ W=.2u         
M_U7_U2_U12_U1_M2         U7_U2_U12_U1_N27355 N116976 U7_U2_U12_U1_N27381
+  U7_U2_U12_U1_N27381 CMOSN  
+ L=.18u  
+ W=.18u         
M_U7_U2_U12_U1_M3         U7_U2_U12_Y U7_U2_U12_X N116990 N116990 CMOSP  
+ L=.18u  
+ W=.2u         
M_U7_U2_U12_U1_M6         U7_U2_U12_U1_N27381 U7_U2_U12_N62152 0 0 CMOSN  
+ L=.18u  
+ W=.18u         
M_U7_U2_U12_U1_M4         U7_U2_U12_Y N116976 N116990 N116990 CMOSP  
+ L=.18u  
+ W=.2u         
M_U7_U2_U12_U1_M1         U7_U2_U12_Y U7_U2_U12_X U7_U2_U12_U1_N27355
+  U7_U2_U12_U1_N27355 CMOSN  
+ L=.18u  
+ W=.18u         
M_U7_U2_U12_U1_M5         U7_U2_U12_Y U7_U2_U12_N62152 N116990 N116990 CMOSP  
+ L=.18u  
+ W=.2u         
M_U7_U2_U12_U2_M5         U7_U2_U12_N62128 U7_U2_U12_N62152 N116990 N116990
+  CMOSP  
+ L=.18u  
+ W=.2u         
M_U7_U2_U12_U2_M6         U7_U2_U12_N62128 U7_U2_U12_N62152 U7_U2_U12_U2_N39991
+  0 CMOSN  
+ L=.18u  
+ W=.18u         
M_U7_U2_U12_U2_M2         U7_U2_U12_U2_N39991 U7_U2_U12_X 0 0 CMOSN  
+ L=.18u  
+ W=.18u         
M_U7_U2_U12_U2_M4         U7_U2_U12_N62128 U7_U2_U12_X N116990 N116990 CMOSP  
+ L=.18u  
+ W=.2u         
M_U7_U2_U12_U3_M5         U7_U2_U12_X U7_U2_U12_N62128 N116990 N116990 CMOSP  
+ L=.18u  
+ W=.2u         
M_U7_U2_U12_U3_M6         U7_U2_U12_X U7_U2_U12_N62128 U7_U2_U12_U3_N39991 0
+  CMOSN  
+ L=.18u  
+ W=.18u         
M_U7_U2_U12_U3_M2         U7_U2_U12_U3_N39991 N116976 0 0 CMOSN  
+ L=.18u  
+ W=.18u         
M_U7_U2_U12_U3_M4         U7_U2_U12_X N116976 N116990 N116990 CMOSP  
+ L=.18u  
+ W=.2u         
M_U7_U2_U12_U4_M5         4SB U7_U2_U12_X N116990 N116990 CMOSP  
+ L=.18u  
+ W=.2u         
M_U7_U2_U12_U4_M6         4SB U7_U2_U12_X U7_U2_U12_U4_N39991 0 CMOSN  
+ L=.18u  
+ W=.18u         
M_U7_U2_U12_U4_M2         U7_U2_U12_U4_N39991 -4SB 0 0 CMOSN  
+ L=.18u  
+ W=.18u         
M_U7_U2_U12_U4_M4         4SB -4SB N116990 N116990 CMOSP  
+ L=.18u  
+ W=.2u         
M_U7_U2_U12_U5_M5         -4SB 4SB N116990 N116990 CMOSP  
+ L=.18u  
+ W=.2u         
M_U7_U2_U12_U5_M6         -4SB 4SB U7_U2_U12_U5_N39991 0 CMOSN  
+ L=.18u  
+ W=.18u         
M_U7_U2_U12_U5_M2         U7_U2_U12_U5_N39991 U7_U2_U12_Y 0 0 CMOSN  
+ L=.18u  
+ W=.18u         
M_U7_U2_U12_U5_M4         -4SB U7_U2_U12_Y N116990 N116990 CMOSP  
+ L=.18u  
+ W=.2u         
M_U7_U2_C29_M4         U7_U2_C29_N26867 U7_U2_N706040 N116990 N116990 CMOSP  
+ L=.2u  
+ W=.6u         
M_U7_U2_C29_M5         U7_U2_C29_N27165 N117027 0 0 CMOSN  
+ L=.2u  
+ W=.6u         
M_U7_U2_C29_M6         Q29 U7_U2_C29_N26867 N116990 N116990 CMOSP  
+ L=.2u  
+ W=.8u         
M_U7_U2_C29_M7         Q29 N117027 0 0 CMOSN  
+ L=.2u  
+ W=.4u         
M_U7_U2_C29_M1         U7_U2_N706040 N117007 U7_U2_C29_N27165 0 CMOSN  
+ L=.2u  
+ W=.4u         
M_U7_U2_C29_M2         U7_U2_C29_N26867 U7_N117542 U7_U2_C29_N27165 0 CMOSN  
+ L=.2u  
+ W=.4u         
M_U7_U2_C29_M3         U7_U2_N706040 U7_U2_N706040 N116990 N116990 CMOSP  
+ L=.2u  
+ W=.6u         
M_U7_U2_C40_M4         U7_U2_C40_N26867 U7_U2_N717856 N116990 N116990 CMOSP  
+ L=.2u  
+ W=.6u         
M_U7_U2_C40_M5         U7_U2_C40_N27165 N117027 0 0 CMOSN  
+ L=.2u  
+ W=.6u         
M_U7_U2_C40_M6         Q40 U7_U2_C40_N26867 N116990 N116990 CMOSP  
+ L=.2u  
+ W=.8u         
M_U7_U2_C40_M7         Q40 N117027 0 0 CMOSN  
+ L=.2u  
+ W=.4u         
M_U7_U2_C40_M1         U7_U2_N717856 N117007 U7_U2_C40_N27165 0 CMOSN  
+ L=.2u  
+ W=.4u         
M_U7_U2_C40_M2         U7_U2_C40_N26867 U7_N117504 U7_U2_C40_N27165 0 CMOSN  
+ L=.2u  
+ W=.4u         
M_U7_U2_C40_M3         U7_U2_N717856 U7_U2_N717856 N116990 N116990 CMOSP  
+ L=.2u  
+ W=.6u         
M_U7_U2_U15_U6_M5         U7_U2_U15_N62152 U7_U2_U15_Y N116990 N116990 CMOSP  
+ L=.18u  
+ W=.2u         
M_U7_U2_U15_U6_M6         U7_U2_U15_N62152 U7_U2_U15_Y U7_U2_U15_U6_N39991 0
+  CMOSN  
+ L=.18u  
+ W=.18u         
M_U7_U2_U15_U6_M2         U7_U2_U15_U6_N39991 U7_U2_D-LSB 0 0 CMOSN  
+ L=.18u  
+ W=.18u         
M_U7_U2_U15_U6_M4         U7_U2_U15_N62152 U7_U2_D-LSB N116990 N116990 CMOSP  
+ L=.18u  
+ W=.2u         
M_U7_U2_U15_U1_M2         U7_U2_U15_U1_N27355 N116976 U7_U2_U15_U1_N27381
+  U7_U2_U15_U1_N27381 CMOSN  
+ L=.18u  
+ W=.18u         
M_U7_U2_U15_U1_M3         U7_U2_U15_Y U7_U2_U15_X N116990 N116990 CMOSP  
+ L=.18u  
+ W=.2u         
M_U7_U2_U15_U1_M6         U7_U2_U15_U1_N27381 U7_U2_U15_N62152 0 0 CMOSN  
+ L=.18u  
+ W=.18u         
M_U7_U2_U15_U1_M4         U7_U2_U15_Y N116976 N116990 N116990 CMOSP  
+ L=.18u  
+ W=.2u         
M_U7_U2_U15_U1_M1         U7_U2_U15_Y U7_U2_U15_X U7_U2_U15_U1_N27355
+  U7_U2_U15_U1_N27355 CMOSN  
+ L=.18u  
+ W=.18u         
M_U7_U2_U15_U1_M5         U7_U2_U15_Y U7_U2_U15_N62152 N116990 N116990 CMOSP  
+ L=.18u  
+ W=.2u         
M_U7_U2_U15_U2_M5         U7_U2_U15_N62128 U7_U2_U15_N62152 N116990 N116990
+  CMOSP  
+ L=.18u  
+ W=.2u         
M_U7_U2_U15_U2_M6         U7_U2_U15_N62128 U7_U2_U15_N62152 U7_U2_U15_U2_N39991
+  0 CMOSN  
+ L=.18u  
+ W=.18u         
M_U7_U2_U15_U2_M2         U7_U2_U15_U2_N39991 U7_U2_U15_X 0 0 CMOSN  
+ L=.18u  
+ W=.18u         
M_U7_U2_U15_U2_M4         U7_U2_U15_N62128 U7_U2_U15_X N116990 N116990 CMOSP  
+ L=.18u  
+ W=.2u         
M_U7_U2_U15_U3_M5         U7_U2_U15_X U7_U2_U15_N62128 N116990 N116990 CMOSP  
+ L=.18u  
+ W=.2u         
M_U7_U2_U15_U3_M6         U7_U2_U15_X U7_U2_U15_N62128 U7_U2_U15_U3_N39991 0
+  CMOSN  
+ L=.18u  
+ W=.18u         
M_U7_U2_U15_U3_M2         U7_U2_U15_U3_N39991 N116976 0 0 CMOSN  
+ L=.18u  
+ W=.18u         
M_U7_U2_U15_U3_M4         U7_U2_U15_X N116976 N116990 N116990 CMOSP  
+ L=.18u  
+ W=.2u         
M_U7_U2_U15_U4_M5         LSB U7_U2_U15_X N116990 N116990 CMOSP  
+ L=.18u  
+ W=.2u         
M_U7_U2_U15_U4_M6         LSB U7_U2_U15_X U7_U2_U15_U4_N39991 0 CMOSN  
+ L=.18u  
+ W=.18u         
M_U7_U2_U15_U4_M2         U7_U2_U15_U4_N39991 -LSB 0 0 CMOSN  
+ L=.18u  
+ W=.18u         
M_U7_U2_U15_U4_M4         LSB -LSB N116990 N116990 CMOSP  
+ L=.18u  
+ W=.2u         
M_U7_U2_U15_U5_M5         -LSB LSB N116990 N116990 CMOSP  
+ L=.18u  
+ W=.2u         
M_U7_U2_U15_U5_M6         -LSB LSB U7_U2_U15_U5_N39991 0 CMOSN  
+ L=.18u  
+ W=.18u         
M_U7_U2_U15_U5_M2         U7_U2_U15_U5_N39991 U7_U2_U15_Y 0 0 CMOSN  
+ L=.18u  
+ W=.18u         
M_U7_U2_U15_U5_M4         -LSB U7_U2_U15_Y N116990 N116990 CMOSP  
+ L=.18u  
+ W=.2u         
M_U7_U2_C56_M4         U7_U2_C56_N26867 U7_U2_N729676 N116990 N116990 CMOSP  
+ L=.2u  
+ W=.6u         
M_U7_U2_C56_M5         U7_U2_C56_N27165 N117027 0 0 CMOSN  
+ L=.2u  
+ W=.6u         
M_U7_U2_C56_M6         Q56 U7_U2_C56_N26867 N116990 N116990 CMOSP  
+ L=.2u  
+ W=.8u         
M_U7_U2_C56_M7         Q56 N117027 0 0 CMOSN  
+ L=.2u  
+ W=.4u         
M_U7_U2_C56_M1         U7_U2_N729676 N117007 U7_U2_C56_N27165 0 CMOSN  
+ L=.2u  
+ W=.4u         
M_U7_U2_C56_M2         U7_U2_C56_N26867 U7_N119895 U7_U2_C56_N27165 0 CMOSN  
+ L=.2u  
+ W=.4u         
M_U7_U2_C56_M3         U7_U2_N729676 U7_U2_N729676 N116990 N116990 CMOSP  
+ L=.2u  
+ W=.6u         
M_U7_U2_C52_M4         U7_U2_C52_N26867 U7_U2_N726544 N116990 N116990 CMOSP  
+ L=.2u  
+ W=.6u         
M_U7_U2_C52_M5         U7_U2_C52_N27165 N117027 0 0 CMOSN  
+ L=.2u  
+ W=.6u         
M_U7_U2_C52_M6         Q52 U7_U2_C52_N26867 N116990 N116990 CMOSP  
+ L=.2u  
+ W=.8u         
M_U7_U2_C52_M7         Q52 N117027 0 0 CMOSN  
+ L=.2u  
+ W=.4u         
M_U7_U2_C52_M1         U7_U2_N726544 N117007 U7_U2_C52_N27165 0 CMOSN  
+ L=.2u  
+ W=.4u         
M_U7_U2_C52_M2         U7_U2_C52_N26867 U7_N119907 U7_U2_C52_N27165 0 CMOSN  
+ L=.2u  
+ W=.4u         
M_U7_U2_C52_M3         U7_U2_N726544 U7_U2_N726544 N116990 N116990 CMOSP  
+ L=.2u  
+ W=.6u         
M_U7_U2_C59_M4         U7_U2_C59_N26867 U7_U2_N732095 N116990 N116990 CMOSP  
+ L=.2u  
+ W=.6u         
M_U7_U2_C59_M5         U7_U2_C59_N27165 N117027 0 0 CMOSN  
+ L=.2u  
+ W=.6u         
M_U7_U2_C59_M6         Q59 U7_U2_C59_N26867 N116990 N116990 CMOSP  
+ L=.2u  
+ W=.8u         
M_U7_U2_C59_M7         Q59 N117027 0 0 CMOSN  
+ L=.2u  
+ W=.4u         
M_U7_U2_C59_M1         U7_U2_N732095 N117007 U7_U2_C59_N27165 0 CMOSN  
+ L=.2u  
+ W=.4u         
M_U7_U2_C59_M2         U7_U2_C59_N26867 U7_N119889 U7_U2_C59_N27165 0 CMOSN  
+ L=.2u  
+ W=.4u         
M_U7_U2_C59_M3         U7_U2_N732095 U7_U2_N732095 N116990 N116990 CMOSP  
+ L=.2u  
+ W=.6u         
M_U7_U2_C13_M4         U7_U2_C13_N26867 U7_U2_N672583 N116990 N116990 CMOSP  
+ L=.2u  
+ W=.6u         
M_U7_U2_C13_M5         U7_U2_C13_N27165 N117027 0 0 CMOSN  
+ L=.2u  
+ W=.6u         
M_U7_U2_C13_M6         Q13 U7_U2_C13_N26867 N116990 N116990 CMOSP  
+ L=.2u  
+ W=.8u         
M_U7_U2_C13_M7         Q13 N117027 0 0 CMOSN  
+ L=.2u  
+ W=.4u         
M_U7_U2_C13_M1         U7_U2_N672583 N117007 U7_U2_C13_N27165 0 CMOSN  
+ L=.2u  
+ W=.4u         
M_U7_U2_C13_M2         U7_U2_C13_N26867 U7_N117558 U7_U2_C13_N27165 0 CMOSN  
+ L=.2u  
+ W=.4u         
M_U7_U2_C13_M3         U7_U2_N672583 U7_U2_N672583 N116990 N116990 CMOSP  
+ L=.2u  
+ W=.6u         
M_U7_U2_C14_M4         U7_U2_C14_N26867 U7_U2_N673067 N116990 N116990 CMOSP  
+ L=.2u  
+ W=.6u         
M_U7_U2_C14_M5         U7_U2_C14_N27165 N117027 0 0 CMOSN  
+ L=.2u  
+ W=.6u         
M_U7_U2_C14_M6         Q14 U7_U2_C14_N26867 N116990 N116990 CMOSP  
+ L=.2u  
+ W=.8u         
M_U7_U2_C14_M7         Q14 N117027 0 0 CMOSN  
+ L=.2u  
+ W=.4u         
M_U7_U2_C14_M1         U7_U2_N673067 N117007 U7_U2_C14_N27165 0 CMOSN  
+ L=.2u  
+ W=.4u         
M_U7_U2_C14_M2         U7_U2_C14_N26867 U7_N117556 U7_U2_C14_N27165 0 CMOSN  
+ L=.2u  
+ W=.4u         
M_U7_U2_C14_M3         U7_U2_N673067 U7_U2_N673067 N116990 N116990 CMOSP  
+ L=.2u  
+ W=.6u         
M_U7_U2_C12_M4         U7_U2_C12_N26867 U7_U2_N672104 N116990 N116990 CMOSP  
+ L=.2u  
+ W=.6u         
M_U7_U2_C12_M5         U7_U2_C12_N27165 N117027 0 0 CMOSN  
+ L=.2u  
+ W=.6u         
M_U7_U2_C12_M6         Q12 U7_U2_C12_N26867 N116990 N116990 CMOSP  
+ L=.2u  
+ W=.8u         
M_U7_U2_C12_M7         Q12 N117027 0 0 CMOSN  
+ L=.2u  
+ W=.4u         
M_U7_U2_C12_M1         U7_U2_N672104 N117007 U7_U2_C12_N27165 0 CMOSN  
+ L=.2u  
+ W=.4u         
M_U7_U2_C12_M2         U7_U2_C12_N26867 U7_N117560 U7_U2_C12_N27165 0 CMOSN  
+ L=.2u  
+ W=.4u         
M_U7_U2_C12_M3         U7_U2_N672104 U7_U2_N672104 N116990 N116990 CMOSP  
+ L=.2u  
+ W=.6u         
M_U7_U2_C30_M4         U7_U2_C30_N26867 U7_U2_N706812 N116990 N116990 CMOSP  
+ L=.2u  
+ W=.6u         
M_U7_U2_C30_M5         U7_U2_C30_N27165 N117027 0 0 CMOSN  
+ L=.2u  
+ W=.6u         
M_U7_U2_C30_M6         Q30 U7_U2_C30_N26867 N116990 N116990 CMOSP  
+ L=.2u  
+ W=.8u         
M_U7_U2_C30_M7         Q30 N117027 0 0 CMOSN  
+ L=.2u  
+ W=.4u         
M_U7_U2_C30_M1         U7_U2_N706812 N117007 U7_U2_C30_N27165 0 CMOSN  
+ L=.2u  
+ W=.4u         
M_U7_U2_C30_M2         U7_U2_C30_N26867 U7_N117544 U7_U2_C30_N27165 0 CMOSN  
+ L=.2u  
+ W=.4u         
M_U7_U2_C30_M3         U7_U2_N706812 U7_U2_N706812 N116990 N116990 CMOSP  
+ L=.2u  
+ W=.6u         
M_U7_U2_C35_M4         U7_U2_C35_N26867 U7_U2_N714526 N116990 N116990 CMOSP  
+ L=.2u  
+ W=.6u         
M_U7_U2_C35_M5         U7_U2_C35_N27165 N117027 0 0 CMOSN  
+ L=.2u  
+ W=.6u         
M_U7_U2_C35_M6         Q35 U7_U2_C35_N26867 N116990 N116990 CMOSP  
+ L=.2u  
+ W=.8u         
M_U7_U2_C35_M7         Q35 N117027 0 0 CMOSN  
+ L=.2u  
+ W=.4u         
M_U7_U2_C35_M1         U7_U2_N714526 N117007 U7_U2_C35_N27165 0 CMOSN  
+ L=.2u  
+ W=.4u         
M_U7_U2_C35_M2         U7_U2_C35_N26867 U7_N117514 U7_U2_C35_N27165 0 CMOSN  
+ L=.2u  
+ W=.4u         
M_U7_U2_C35_M3         U7_U2_N714526 U7_U2_N714526 N116990 N116990 CMOSP  
+ L=.2u  
+ W=.6u         
M_U7_U2_C39_M4         U7_U2_C39_N26867 U7_U2_N717177 N116990 N116990 CMOSP  
+ L=.2u  
+ W=.6u         
M_U7_U2_C39_M5         U7_U2_C39_N27165 N117027 0 0 CMOSN  
+ L=.2u  
+ W=.6u         
M_U7_U2_C39_M6         Q39 U7_U2_C39_N26867 N116990 N116990 CMOSP  
+ L=.2u  
+ W=.8u         
M_U7_U2_C39_M7         Q39 N117027 0 0 CMOSN  
+ L=.2u  
+ W=.4u         
M_U7_U2_C39_M1         U7_U2_N717177 N117007 U7_U2_C39_N27165 0 CMOSN  
+ L=.2u  
+ W=.4u         
M_U7_U2_C39_M2         U7_U2_C39_N26867 U7_N117506 U7_U2_C39_N27165 0 CMOSN  
+ L=.2u  
+ W=.4u         
M_U7_U2_C39_M3         U7_U2_N717177 U7_U2_N717177 N116990 N116990 CMOSP  
+ L=.2u  
+ W=.6u         
M_U7_U2_C15_M4         U7_U2_C15_N26867 U7_U2_N673556 N116990 N116990 CMOSP  
+ L=.2u  
+ W=.6u         
M_U7_U2_C15_M5         U7_U2_C15_N27165 N117027 0 0 CMOSN  
+ L=.2u  
+ W=.6u         
M_U7_U2_C15_M6         Q15 U7_U2_C15_N26867 N116990 N116990 CMOSP  
+ L=.2u  
+ W=.8u         
M_U7_U2_C15_M7         Q15 N117027 0 0 CMOSN  
+ L=.2u  
+ W=.4u         
M_U7_U2_C15_M1         U7_U2_N673556 N117007 U7_U2_C15_N27165 0 CMOSN  
+ L=.2u  
+ W=.4u         
M_U7_U2_C15_M2         U7_U2_C15_N26867 U7_N117554 U7_U2_C15_N27165 0 CMOSN  
+ L=.2u  
+ W=.4u         
M_U7_U2_C15_M3         U7_U2_N673556 U7_U2_N673556 N116990 N116990 CMOSP  
+ L=.2u  
+ W=.6u         
M_U7_U2_C11_M4         U7_U2_C11_N26867 U7_U2_N671629 N116990 N116990 CMOSP  
+ L=.2u  
+ W=.6u         
M_U7_U2_C11_M5         U7_U2_C11_N27165 N117027 0 0 CMOSN  
+ L=.2u  
+ W=.6u         
M_U7_U2_C11_M6         Q11 U7_U2_C11_N26867 N116990 N116990 CMOSP  
+ L=.2u  
+ W=.8u         
M_U7_U2_C11_M7         Q11 N117027 0 0 CMOSN  
+ L=.2u  
+ W=.4u         
M_U7_U2_C11_M1         U7_U2_N671629 N117007 U7_U2_C11_N27165 0 CMOSN  
+ L=.2u  
+ W=.4u         
M_U7_U2_C11_M2         U7_U2_C11_N26867 U7_N117562 U7_U2_C11_N27165 0 CMOSN  
+ L=.2u  
+ W=.4u         
M_U7_U2_C11_M3         U7_U2_N671629 U7_U2_N671629 N116990 N116990 CMOSP  
+ L=.2u  
+ W=.6u         
M_U7_U2_C6_M4         U7_U2_C6_N26867 U7_U2_N668718 N116990 N116990 CMOSP  
+ L=.2u  
+ W=.6u         
M_U7_U2_C6_M5         U7_U2_C6_N27165 N117027 0 0 CMOSN  
+ L=.2u  
+ W=.6u         
M_U7_U2_C6_M6         Q6 U7_U2_C6_N26867 N116990 N116990 CMOSP  
+ L=.2u  
+ W=.8u         
M_U7_U2_C6_M7         Q6 N117027 0 0 CMOSN  
+ L=.2u  
+ W=.4u         
M_U7_U2_C6_M1         U7_U2_N668718 N117007 U7_U2_C6_N27165 0 CMOSN  
+ L=.2u  
+ W=.4u         
M_U7_U2_C6_M2         U7_U2_C6_N26867 U7_N117572 U7_U2_C6_N27165 0 CMOSN  
+ L=.2u  
+ W=.4u         
M_U7_U2_C6_M3         U7_U2_N668718 U7_U2_N668718 N116990 N116990 CMOSP  
+ L=.2u  
+ W=.6u         
M_U7_U2_C16_M4         U7_U2_C16_N26867 U7_U2_N674050 N116990 N116990 CMOSP  
+ L=.2u  
+ W=.6u         
M_U7_U2_C16_M5         U7_U2_C16_N27165 N117027 0 0 CMOSN  
+ L=.2u  
+ W=.6u         
M_U7_U2_C16_M6         Q16 U7_U2_C16_N26867 N116990 N116990 CMOSP  
+ L=.2u  
+ W=.8u         
M_U7_U2_C16_M7         Q16 N117027 0 0 CMOSN  
+ L=.2u  
+ W=.4u         
M_U7_U2_C16_M1         U7_U2_N674050 N117007 U7_U2_C16_N27165 0 CMOSN  
+ L=.2u  
+ W=.4u         
M_U7_U2_C16_M2         U7_U2_C16_N26867 U7_N117552 U7_U2_C16_N27165 0 CMOSN  
+ L=.2u  
+ W=.4u         
M_U7_U2_C16_M3         U7_U2_N674050 U7_U2_N674050 N116990 N116990 CMOSP  
+ L=.2u  
+ W=.6u         
M_U7_U2_C10_M4         U7_U2_C10_N26867 U7_U2_N671160 N116990 N116990 CMOSP  
+ L=.2u  
+ W=.6u         
M_U7_U2_C10_M5         U7_U2_C10_N27165 N117027 0 0 CMOSN  
+ L=.2u  
+ W=.6u         
M_U7_U2_C10_M6         Q10 U7_U2_C10_N26867 N116990 N116990 CMOSP  
+ L=.2u  
+ W=.8u         
M_U7_U2_C10_M7         Q10 N117027 0 0 CMOSN  
+ L=.2u  
+ W=.4u         
M_U7_U2_C10_M1         U7_U2_N671160 N117007 U7_U2_C10_N27165 0 CMOSN  
+ L=.2u  
+ W=.4u         
M_U7_U2_C10_M2         U7_U2_C10_N26867 U7_N117580 U7_U2_C10_N27165 0 CMOSN  
+ L=.2u  
+ W=.4u         
M_U7_U2_C10_M3         U7_U2_N671160 U7_U2_N671160 N116990 N116990 CMOSP  
+ L=.2u  
+ W=.6u         
M_U7_U2_C53_M4         U7_U2_C53_N26867 U7_U2_N727317 N116990 N116990 CMOSP  
+ L=.2u  
+ W=.6u         
M_U7_U2_C53_M5         U7_U2_C53_N27165 N117027 0 0 CMOSN  
+ L=.2u  
+ W=.6u         
M_U7_U2_C53_M6         Q53 U7_U2_C53_N26867 N116990 N116990 CMOSP  
+ L=.2u  
+ W=.8u         
M_U7_U2_C53_M7         Q53 N117027 0 0 CMOSN  
+ L=.2u  
+ W=.4u         
M_U7_U2_C53_M1         U7_U2_N727317 N117007 U7_U2_C53_N27165 0 CMOSN  
+ L=.2u  
+ W=.4u         
M_U7_U2_C53_M2         U7_U2_C53_N26867 U7_N119901 U7_U2_C53_N27165 0 CMOSN  
+ L=.2u  
+ W=.4u         
M_U7_U2_C53_M3         U7_U2_N727317 U7_U2_N727317 N116990 N116990 CMOSP  
+ L=.2u  
+ W=.6u         
M_U7_U2_U11_U6_M5         U7_U2_U11_N62152 U7_U2_U11_Y N116990 N116990 CMOSP  
+ L=.18u  
+ W=.2u         
M_U7_U2_U11_U6_M6         U7_U2_U11_N62152 U7_U2_U11_Y U7_U2_U11_U6_N39991 0
+  CMOSN  
+ L=.18u  
+ W=.18u         
M_U7_U2_U11_U6_M2         U7_U2_U11_U6_N39991 U7_U2_D-5SB 0 0 CMOSN  
+ L=.18u  
+ W=.18u         
M_U7_U2_U11_U6_M4         U7_U2_U11_N62152 U7_U2_D-5SB N116990 N116990 CMOSP  
+ L=.18u  
+ W=.2u         
M_U7_U2_U11_U1_M2         U7_U2_U11_U1_N27355 N116976 U7_U2_U11_U1_N27381
+  U7_U2_U11_U1_N27381 CMOSN  
+ L=.18u  
+ W=.18u         
M_U7_U2_U11_U1_M3         U7_U2_U11_Y U7_U2_U11_X N116990 N116990 CMOSP  
+ L=.18u  
+ W=.2u         
M_U7_U2_U11_U1_M6         U7_U2_U11_U1_N27381 U7_U2_U11_N62152 0 0 CMOSN  
+ L=.18u  
+ W=.18u         
M_U7_U2_U11_U1_M4         U7_U2_U11_Y N116976 N116990 N116990 CMOSP  
+ L=.18u  
+ W=.2u         
M_U7_U2_U11_U1_M1         U7_U2_U11_Y U7_U2_U11_X U7_U2_U11_U1_N27355
+  U7_U2_U11_U1_N27355 CMOSN  
+ L=.18u  
+ W=.18u         
M_U7_U2_U11_U1_M5         U7_U2_U11_Y U7_U2_U11_N62152 N116990 N116990 CMOSP  
+ L=.18u  
+ W=.2u         
M_U7_U2_U11_U2_M5         U7_U2_U11_N62128 U7_U2_U11_N62152 N116990 N116990
+  CMOSP  
+ L=.18u  
+ W=.2u         
M_U7_U2_U11_U2_M6         U7_U2_U11_N62128 U7_U2_U11_N62152 U7_U2_U11_U2_N39991
+  0 CMOSN  
+ L=.18u  
+ W=.18u         
M_U7_U2_U11_U2_M2         U7_U2_U11_U2_N39991 U7_U2_U11_X 0 0 CMOSN  
+ L=.18u  
+ W=.18u         
M_U7_U2_U11_U2_M4         U7_U2_U11_N62128 U7_U2_U11_X N116990 N116990 CMOSP  
+ L=.18u  
+ W=.2u         
M_U7_U2_U11_U3_M5         U7_U2_U11_X U7_U2_U11_N62128 N116990 N116990 CMOSP  
+ L=.18u  
+ W=.2u         
M_U7_U2_U11_U3_M6         U7_U2_U11_X U7_U2_U11_N62128 U7_U2_U11_U3_N39991 0
+  CMOSN  
+ L=.18u  
+ W=.18u         
M_U7_U2_U11_U3_M2         U7_U2_U11_U3_N39991 N116976 0 0 CMOSN  
+ L=.18u  
+ W=.18u         
M_U7_U2_U11_U3_M4         U7_U2_U11_X N116976 N116990 N116990 CMOSP  
+ L=.18u  
+ W=.2u         
M_U7_U2_U11_U4_M5         5SB U7_U2_U11_X N116990 N116990 CMOSP  
+ L=.18u  
+ W=.2u         
M_U7_U2_U11_U4_M6         5SB U7_U2_U11_X U7_U2_U11_U4_N39991 0 CMOSN  
+ L=.18u  
+ W=.18u         
M_U7_U2_U11_U4_M2         U7_U2_U11_U4_N39991 -5SB 0 0 CMOSN  
+ L=.18u  
+ W=.18u         
M_U7_U2_U11_U4_M4         5SB -5SB N116990 N116990 CMOSP  
+ L=.18u  
+ W=.2u         
M_U7_U2_U11_U5_M5         -5SB 5SB N116990 N116990 CMOSP  
+ L=.18u  
+ W=.2u         
M_U7_U2_U11_U5_M6         -5SB 5SB U7_U2_U11_U5_N39991 0 CMOSN  
+ L=.18u  
+ W=.18u         
M_U7_U2_U11_U5_M2         U7_U2_U11_U5_N39991 U7_U2_U11_Y 0 0 CMOSN  
+ L=.18u  
+ W=.18u         
M_U7_U2_U11_U5_M4         -5SB U7_U2_U11_Y N116990 N116990 CMOSP  
+ L=.18u  
+ W=.2u         
M_U7_U2_C22_M4         U7_U2_C22_N26867 U7_U2_N700812 N116990 N116990 CMOSP  
+ L=.2u  
+ W=.6u         
M_U7_U2_C22_M5         U7_U2_C22_N27165 N117027 0 0 CMOSN  
+ L=.2u  
+ W=.6u         
M_U7_U2_C22_M6         Q22 U7_U2_C22_N26867 N116990 N116990 CMOSP  
+ L=.2u  
+ W=.8u         
M_U7_U2_C22_M7         Q22 N117027 0 0 CMOSN  
+ L=.2u  
+ W=.4u         
M_U7_U2_C22_M1         U7_U2_N700812 N117007 U7_U2_C22_N27165 0 CMOSN  
+ L=.2u  
+ W=.4u         
M_U7_U2_C22_M2         U7_U2_C22_N26867 U7_N117528 U7_U2_C22_N27165 0 CMOSN  
+ L=.2u  
+ W=.4u         
M_U7_U2_C22_M3         U7_U2_N700812 U7_U2_N700812 N116990 N116990 CMOSP  
+ L=.2u  
+ W=.6u         
M_U7_U2_C23_M4         U7_U2_C23_N26867 U7_U2_N701538 N116990 N116990 CMOSP  
+ L=.2u  
+ W=.6u         
M_U7_U2_C23_M5         U7_U2_C23_N27165 N117027 0 0 CMOSN  
+ L=.2u  
+ W=.6u         
M_U7_U2_C23_M6         Q23 U7_U2_C23_N26867 N116990 N116990 CMOSP  
+ L=.2u  
+ W=.8u         
M_U7_U2_C23_M7         Q23 N117027 0 0 CMOSN  
+ L=.2u  
+ W=.4u         
M_U7_U2_C23_M1         U7_U2_N701538 N117007 U7_U2_C23_N27165 0 CMOSN  
+ L=.2u  
+ W=.4u         
M_U7_U2_C23_M2         U7_U2_C23_N26867 U7_N117530 U7_U2_C23_N27165 0 CMOSN  
+ L=.2u  
+ W=.4u         
M_U7_U2_C23_M3         U7_U2_N701538 U7_U2_N701538 N116990 N116990 CMOSP  
+ L=.2u  
+ W=.6u         
M_U7_U2_C21_M4         U7_U2_C21_N26867 U7_U2_N700094 N116990 N116990 CMOSP  
+ L=.2u  
+ W=.6u         
M_U7_U2_C21_M5         U7_U2_C21_N27165 N117027 0 0 CMOSN  
+ L=.2u  
+ W=.6u         
M_U7_U2_C21_M6         Q21 U7_U2_C21_N26867 N116990 N116990 CMOSP  
+ L=.2u  
+ W=.8u         
M_U7_U2_C21_M7         Q21 N117027 0 0 CMOSN  
+ L=.2u  
+ W=.4u         
M_U7_U2_C21_M1         U7_U2_N700094 N117007 U7_U2_C21_N27165 0 CMOSN  
+ L=.2u  
+ W=.4u         
M_U7_U2_C21_M2         U7_U2_C21_N26867 U7_N117526 U7_U2_C21_N27165 0 CMOSN  
+ L=.2u  
+ W=.4u         
M_U7_U2_C21_M3         U7_U2_N700094 U7_U2_N700094 N116990 N116990 CMOSP  
+ L=.2u  
+ W=.6u         
M_U7_U2_C1_M4         U7_U2_C1_N26867 U7_U2_N674551 N116990 N116990 CMOSP  
+ L=.2u  
+ W=.6u         
M_U7_U2_C1_M5         U7_U2_C1_N27165 N117027 0 0 CMOSN  
+ L=.2u  
+ W=.6u         
M_U7_U2_C1_M6         Q1 U7_U2_C1_N26867 N116990 N116990 CMOSP  
+ L=.2u  
+ W=.8u         
M_U7_U2_C1_M7         Q1 N117027 0 0 CMOSN  
+ L=.2u  
+ W=.4u         
M_U7_U2_C1_M1         U7_U2_N674551 N117007 U7_U2_C1_N27165 0 CMOSN  
+ L=.2u  
+ W=.4u         
M_U7_U2_C1_M2         U7_U2_C1_N26867 U7_N117582 U7_U2_C1_N27165 0 CMOSN  
+ L=.2u  
+ W=.4u         
M_U7_U2_C1_M3         U7_U2_N674551 U7_U2_N674551 N116990 N116990 CMOSP  
+ L=.2u  
+ W=.6u         
M_U7_U2_C9_M4         U7_U2_C9_N26867 U7_U2_N670697 N116990 N116990 CMOSP  
+ L=.2u  
+ W=.6u         
M_U7_U2_C9_M5         U7_U2_C9_N27165 N117027 0 0 CMOSN  
+ L=.2u  
+ W=.6u         
M_U7_U2_C9_M6         Q9 U7_U2_C9_N26867 N116990 N116990 CMOSP  
+ L=.2u  
+ W=.8u         
M_U7_U2_C9_M7         Q9 N117027 0 0 CMOSN  
+ L=.2u  
+ W=.4u         
M_U7_U2_C9_M1         U7_U2_N670697 N117007 U7_U2_C9_N27165 0 CMOSN  
+ L=.2u  
+ W=.4u         
M_U7_U2_C9_M2         U7_U2_C9_N26867 U7_N117578 U7_U2_C9_N27165 0 CMOSN  
+ L=.2u  
+ W=.4u         
M_U7_U2_C9_M3         U7_U2_N670697 U7_U2_N670697 N116990 N116990 CMOSP  
+ L=.2u  
+ W=.6u         
M_U7_U2_U9_U31_M5         U7_U2_U9_N568171 Q2 N116990 N116990 CMOSP  
+ L=.18u  
+ W=.2u         
M_U7_U2_U9_U31_M6         U7_U2_U9_N568171 Q2 0 0 CMOSN  
+ L=.18u  
+ W=.18u         
M_U7_U2_U9_U16_M5         U7_U2_U9_N565094 Q16 N116990 N116990 CMOSP  
+ L=.18u  
+ W=.2u         
M_U7_U2_U9_U16_M6         U7_U2_U9_N565094 Q16 0 0 CMOSN  
+ L=.18u  
+ W=.18u         
M_U7_U2_U9_U91_M5         U7_U2_U9_N577856 U7_U2_U9_N578578 N116990 N116990
+  CMOSP  
+ L=.18u  
+ W=.2u         
M_U7_U2_U9_U91_M6         U7_U2_U9_N577856 U7_U2_U9_N578578 U7_U2_U9_U91_N39991
+  0 CMOSN  
+ L=.18u  
+ W=.18u         
M_U7_U2_U9_U91_M2         U7_U2_U9_U91_N39991 Q31 0 0 CMOSN  
+ L=.18u  
+ W=.18u         
M_U7_U2_U9_U91_M4         U7_U2_U9_N577856 Q31 N116990 N116990 CMOSP  
+ L=.18u  
+ W=.2u         
M_U7_U2_U9_U65_M5         U7_U2_U9_N568485 U7_U2_U9_N7604009 N116990 N116990
+  CMOSP  
+ L=.18u  
+ W=.2u         
M_U7_U2_U9_U65_M6         U7_U2_U9_N568485 U7_U2_U9_N7604009 0 0 CMOSN  
+ L=.18u  
+ W=.18u         
M_U7_U2_U9_U2_M5         U7_U2_U9_N259339 U7_U2_D-MSB N116990 N116990 CMOSP  
+ L=.18u  
+ W=.2u         
M_U7_U2_U9_U2_M6         U7_U2_U9_N259339 U7_U2_D-MSB 0 0 CMOSN  
+ L=.18u  
+ W=.18u         
M_U7_U2_U9_U96_M5         U7_U2_U9_N577828 U7_U2_U9_N578514 N116990 N116990
+  CMOSP  
+ L=.18u  
+ W=.2u         
M_U7_U2_U9_U96_M6         U7_U2_U9_N577828 U7_U2_U9_N578514 U7_U2_U9_U96_N39991
+  0 CMOSN  
+ L=.18u  
+ W=.18u         
M_U7_U2_U9_U96_M2         U7_U2_U9_U96_N39991 Q21 0 0 CMOSN  
+ L=.18u  
+ W=.18u         
M_U7_U2_U9_U96_M4         U7_U2_U9_N577828 Q21 N116990 N116990 CMOSP  
+ L=.18u  
+ W=.2u         
M_U7_U2_U9_U109_M5         U7_U2_U9_N573020 Q48 N116990 N116990 CMOSP  
+ L=.18u  
+ W=.2u         
M_U7_U2_U9_U109_M6         U7_U2_U9_N573020 Q48 0 0 CMOSN  
+ L=.18u  
+ W=.18u         
M_U7_U2_U9_U57_M5         U7_U2_U9_N567883 U7_U2_U9_N567821 N116990 N116990
+  CMOSP  
+ L=.18u  
+ W=.2u         
M_U7_U2_U9_U57_M6         U7_U2_U9_N567883 U7_U2_U9_N567821 U7_U2_U9_U57_N39991
+  0 CMOSN  
+ L=.18u  
+ W=.18u         
M_U7_U2_U9_U57_M2         U7_U2_U9_U57_N39991 Q46 0 0 CMOSN  
+ L=.18u  
+ W=.18u         
M_U7_U2_U9_U57_M4         U7_U2_U9_N567883 Q46 N116990 N116990 CMOSP  
+ L=.18u  
+ W=.2u         
M_U7_U2_U9_U28_M5         U7_U2_U9_N565380 U7_U2_U9_N565120 N116990 N116990
+  CMOSP  
+ L=.18u  
+ W=.2u         
M_U7_U2_U9_U28_M6         U7_U2_U9_N565380 U7_U2_U9_N565120 U7_U2_U9_U28_N39991
+  0 CMOSN  
+ L=.18u  
+ W=.18u         
M_U7_U2_U9_U28_M2         U7_U2_U9_U28_N39991 Q44 0 0 CMOSN  
+ L=.18u  
+ W=.18u         
M_U7_U2_U9_U28_M4         U7_U2_U9_N565380 Q44 N116990 N116990 CMOSP  
+ L=.18u  
+ W=.2u         
M_U7_U2_U9_U139_M5         U7_U2_U9_N575374 X4 N116990 N116990 CMOSP  
+ L=.18u  
+ W=.2u         
M_U7_U2_U9_U139_M6         U7_U2_U9_N575374 X4 0 0 CMOSN  
+ L=.18u  
+ W=.18u         
M_U7_U2_U9_U74_M5         U7_U2_U9_N578674 Q12 N116990 N116990 CMOSP  
+ L=.18u  
+ W=.2u         
M_U7_U2_U9_U74_M6         U7_U2_U9_N578674 Q12 0 0 CMOSN  
+ L=.18u  
+ W=.18u         
M_U7_U2_U9_U43_M5         U7_U2_U9_N567821 Q44 N116990 N116990 CMOSP  
+ L=.18u  
+ W=.2u         
M_U7_U2_U9_U43_M6         U7_U2_U9_N567821 Q44 0 0 CMOSN  
+ L=.18u  
+ W=.18u         
M_U7_U2_U9_U80_M5         U7_U2_U9_N578524 Q22 N116990 N116990 CMOSP  
+ L=.18u  
+ W=.2u         
M_U7_U2_U9_U80_M6         U7_U2_U9_N578524 Q22 0 0 CMOSN  
+ L=.18u  
+ W=.18u         
M_U7_U2_U9_U14_M5         U7_U2_U9_N565346 Q4 N116990 N116990 CMOSP  
+ L=.18u  
+ W=.2u         
M_U7_U2_U9_U14_M6         U7_U2_U9_N565346 Q4 0 0 CMOSN  
+ L=.18u  
+ W=.18u         
M_U7_U2_U9_U136_M5         U7_U2_U9_N575328 X1 N116990 N116990 CMOSP  
+ L=.18u  
+ W=.2u         
M_U7_U2_U9_U136_M6         U7_U2_U9_N575328 X1 0 0 CMOSN  
+ L=.18u  
+ W=.18u         
M_U7_U2_U9_U116_M5         U7_U2_U9_N573096 Q62 N116990 N116990 CMOSP  
+ L=.18u  
+ W=.2u         
M_U7_U2_U9_U116_M6         U7_U2_U9_N573096 Q62 0 0 CMOSN  
+ L=.18u  
+ W=.18u         
M_U7_U2_U9_U124_M5         U7_U2_U9_N572214 U7_U2_U9_N572160 N116990 N116990
+  CMOSP  
+ L=.18u  
+ W=.2u         
M_U7_U2_U9_U124_M6         U7_U2_U9_N572214 U7_U2_U9_N572160
+  U7_U2_U9_U124_N39991 0 CMOSN  
+ L=.18u  
+ W=.18u         
M_U7_U2_U9_U124_M2         U7_U2_U9_U124_N39991 Q47 0 0 CMOSN  
+ L=.18u  
+ W=.18u         
M_U7_U2_U9_U124_M4         U7_U2_U9_N572214 Q47 N116990 N116990 CMOSP  
+ L=.18u  
+ W=.2u         
M_U7_U2_U9_U69_M5         U7_U2_U9_N578608 Q2 N116990 N116990 CMOSP  
+ L=.18u  
+ W=.2u         
M_U7_U2_U9_U69_M6         U7_U2_U9_N578608 Q2 0 0 CMOSN  
+ L=.18u  
+ W=.18u         
M_U7_U2_U9_U86_M5         U7_U2_U9_N577748 U7_U2_U9_N578636 N116990 N116990
+  CMOSP  
+ L=.18u  
+ W=.2u         
M_U7_U2_U9_U86_M6         U7_U2_U9_N577748 U7_U2_U9_N578636 U7_U2_U9_U86_N39991
+  0 CMOSN  
+ L=.18u  
+ W=.18u         
M_U7_U2_U9_U86_M2         U7_U2_U9_U86_N39991 Q7 0 0 CMOSN  
+ L=.18u  
+ W=.18u         
M_U7_U2_U9_U86_M4         U7_U2_U9_N577748 Q7 N116990 N116990 CMOSP  
+ L=.18u  
+ W=.2u         
M_U7_U2_U9_U26_M5         U7_U2_U9_N564842 U7_U2_U9_N565104 N116990 N116990
+  CMOSP  
+ L=.18u  
+ W=.2u         
M_U7_U2_U9_U26_M6         U7_U2_U9_N564842 U7_U2_U9_N565104 U7_U2_U9_U26_N39991
+  0 CMOSN  
+ L=.18u  
+ W=.18u         
M_U7_U2_U9_U26_M2         U7_U2_U9_U26_N39991 Q28 0 0 CMOSN  
+ L=.18u  
+ W=.18u         
M_U7_U2_U9_U26_M4         U7_U2_U9_N564842 Q28 N116990 N116990 CMOSP  
+ L=.18u  
+ W=.2u         
M_U7_U2_U9_U103_M5         U7_U2_U9_N572104 Q36 N116990 N116990 CMOSP  
+ L=.18u  
+ W=.2u         
M_U7_U2_U9_U103_M6         U7_U2_U9_N572104 Q36 0 0 CMOSN  
+ L=.18u  
+ W=.18u         
M_U7_U2_U9_U37_M5         U7_U2_U9_N568555 Q24 N116990 N116990 CMOSP  
+ L=.18u  
+ W=.2u         
M_U7_U2_U9_U37_M6         U7_U2_U9_N568555 Q24 0 0 CMOSN  
+ L=.18u  
+ W=.18u         
M_U7_U2_U9_U61_M5         U7_U2_U9_N568303 U7_U2_U9_N567861 N116990 N116990
+  CMOSP  
+ L=.18u  
+ W=.2u         
M_U7_U2_U9_U61_M6         U7_U2_U9_N568303 U7_U2_U9_N567861 U7_U2_U9_U61_N39991
+  0 CMOSN  
+ L=.18u  
+ W=.18u         
M_U7_U2_U9_U61_M2         U7_U2_U9_U61_N39991 Q62 0 0 CMOSN  
+ L=.18u  
+ W=.18u         
M_U7_U2_U9_U61_M4         U7_U2_U9_N568303 Q62 N116990 N116990 CMOSP  
+ L=.18u  
+ W=.2u         
M_U7_U2_U9_U119_M5         U7_U2_U9_N572186 U7_U2_U9_N572104 N116990 N116990
+  CMOSP  
+ L=.18u  
+ W=.2u         
M_U7_U2_U9_U119_M6         U7_U2_U9_N572186 U7_U2_U9_N572104
+  U7_U2_U9_U119_N39991 0 CMOSN  
+ L=.18u  
+ W=.18u         
M_U7_U2_U9_U119_M2         U7_U2_U9_U119_N39991 Q37 0 0 CMOSN  
+ L=.18u  
+ W=.18u         
M_U7_U2_U9_U119_M4         U7_U2_U9_N572186 Q37 N116990 N116990 CMOSP  
+ L=.18u  
+ W=.2u         
M_U7_U2_U9_U48_M5         U7_U2_U9_N568271 U7_U2_U9_N568511 N116990 N116990
+  CMOSP  
+ L=.18u  
+ W=.2u         
M_U7_U2_U9_U48_M6         U7_U2_U9_N568271 U7_U2_U9_N568511 U7_U2_U9_U48_N39991
+  0 CMOSN  
+ L=.18u  
+ W=.18u         
M_U7_U2_U9_U48_M2         U7_U2_U9_U48_N39991 Q10 0 0 CMOSN  
+ L=.18u  
+ W=.18u         
M_U7_U2_U9_U48_M4         U7_U2_U9_N568271 Q10 N116990 N116990 CMOSP  
+ L=.18u  
+ W=.2u         
M_U7_U2_U9_U64_M16         U7_U2_U9_N7604009 U7_U2_U9_N567883 N116990 N116990
+  CMOSP  
+ L=.18u  
+ W=.2u         
M_U7_U2_U9_U64_M5         U7_U2_U9_N7604009 U7_U2_U9_N568303 N116990 N116990
+  CMOSP  
+ L=.18u  
+ W=.2u         
M_U7_U2_U9_U64_M11         U7_U2_U9_N7604009 U7_U2_U9_N567441 N116990 N116990
+  CMOSP  
+ L=.18u  
+ W=.2u         
M_U7_U2_U9_U64_M9         U7_U2_U9_N7604009 U7_U2_U9_N568069 N116990 N116990
+  CMOSP  
+ L=.18u  
+ W=.2u         
M_U7_U2_U9_U64_M1         U7_U2_U9_N7604009 U7_U2_U9_N567441
+  U7_U2_U9_U64_N67495 0 CMOSN  
+ L=.18u  
+ W=.18u         
M_U7_U2_U9_U64_M6         U7_U2_U9_U64_N66385 U7_U2_U9_N567879
+  U7_U2_U9_U64_N66425 0 CMOSN  
+ L=.18u  
+ W=.18u         
M_U7_U2_U9_U64_M7         U7_U2_U9_U64_N66425 U7_U2_U9_N567883
+  U7_U2_U9_U64_N66937 0 CMOSN  
+ L=.18u  
+ W=.18u         
M_U7_U2_U9_U64_M12         U7_U2_U9_N7604009 U7_U2_U9_N568995 N116990 N116990
+  CMOSP  
+ L=.18u  
+ W=.2u         
M_U7_U2_U9_U64_M2         U7_U2_U9_U64_N67495 U7_U2_U9_N567415
+  U7_U2_U9_U64_N66385 0 CMOSN  
+ L=.18u  
+ W=.18u         
M_U7_U2_U9_U64_M13         U7_U2_U9_U64_N67207 U7_U2_U9_N568069
+  U7_U2_U9_U64_N67213 0 CMOSN  
+ L=.18u  
+ W=.18u         
M_U7_U2_U9_U64_M10         U7_U2_U9_U64_N66937 U7_U2_U9_N568995
+  U7_U2_U9_U64_N67207 0 CMOSN  
+ L=.18u  
+ W=.18u         
M_U7_U2_U9_U64_M3         U7_U2_U9_N7604009 U7_U2_U9_N567415 N116990 N116990
+  CMOSP  
+ L=.18u  
+ W=.2u         
M_U7_U2_U9_U64_M14         U7_U2_U9_U64_N67213 U7_U2_U9_N568185
+  U7_U2_U9_U64_N66527 0 CMOSN  
+ L=.18u  
+ W=.18u         
M_U7_U2_U9_U64_M8         U7_U2_U9_N7604009 U7_U2_U9_N568185 N116990 N116990
+  CMOSP  
+ L=.18u  
+ W=.2u         
M_U7_U2_U9_U64_M4         U7_U2_U9_N7604009 U7_U2_U9_N567879 N116990 N116990
+  CMOSP  
+ L=.18u  
+ W=.2u         
M_U7_U2_U9_U64_M15         U7_U2_U9_U64_N66527 U7_U2_U9_N568303 0 0 CMOSN  
+ L=.18u  
+ W=.18u         
M_U7_U2_U9_U52_M5         U7_U2_U9_N568231 U7_U2_U9_N568555 N116990 N116990
+  CMOSP  
+ L=.18u  
+ W=.2u         
M_U7_U2_U9_U52_M6         U7_U2_U9_N568231 U7_U2_U9_N568555 U7_U2_U9_U52_N39991
+  0 CMOSN  
+ L=.18u  
+ W=.18u         
M_U7_U2_U9_U52_M2         U7_U2_U9_U52_N39991 Q26 0 0 CMOSN  
+ L=.18u  
+ W=.18u         
M_U7_U2_U9_U52_M4         U7_U2_U9_N568231 Q26 N116990 N116990 CMOSP  
+ L=.18u  
+ W=.2u         
M_U7_U2_U9_U108_M5         U7_U2_U9_N572160 Q46 N116990 N116990 CMOSP  
+ L=.18u  
+ W=.2u         
M_U7_U2_U9_U108_M6         U7_U2_U9_N572160 Q46 0 0 CMOSN  
+ L=.18u  
+ W=.18u         
M_U7_U2_U9_U35_M5         U7_U2_U9_N568535 Q16 N116990 N116990 CMOSP  
+ L=.18u  
+ W=.2u         
M_U7_U2_U9_U35_M6         U7_U2_U9_N568535 Q16 0 0 CMOSN  
+ L=.18u  
+ W=.18u         
M_U7_U2_U9_U24_M5         U7_U2_U9_N565404 U7_U2_U9_N565082 N116990 N116990
+  CMOSP  
+ L=.18u  
+ W=.2u         
M_U7_U2_U9_U24_M6         U7_U2_U9_N565404 U7_U2_U9_N565082 U7_U2_U9_U24_N39991
+  0 CMOSN  
+ L=.18u  
+ W=.18u         
M_U7_U2_U9_U24_M2         U7_U2_U9_U24_N39991 Q12 0 0 CMOSN  
+ L=.18u  
+ W=.18u         
M_U7_U2_U9_U24_M4         U7_U2_U9_N565404 Q12 N116990 N116990 CMOSP  
+ L=.18u  
+ W=.2u         
M_U7_U2_U9_U135_M16         X4 U7_U2_U9_N572634 N116990 N116990 CMOSP  
+ L=.18u  
+ W=.2u         
M_U7_U2_U9_U135_M5         X4 U7_U2_U9_N572658 N116990 N116990 CMOSP  
+ L=.18u  
+ W=.2u         
M_U7_U2_U9_U135_M11         X4 U7_U2_U9_N572622 N116990 N116990 CMOSP  
+ L=.18u  
+ W=.2u         
M_U7_U2_U9_U135_M9         X4 U7_U2_U9_N572642 N116990 N116990 CMOSP  
+ L=.18u  
+ W=.2u         
M_U7_U2_U9_U135_M1         X4 U7_U2_U9_N572622 U7_U2_U9_U135_N67495 0 CMOSN  
+ L=.18u  
+ W=.18u         
M_U7_U2_U9_U135_M6         U7_U2_U9_U135_N66385 U7_U2_U9_N572630
+  U7_U2_U9_U135_N66425 0 CMOSN  
+ L=.18u  
+ W=.18u         
M_U7_U2_U9_U135_M7         U7_U2_U9_U135_N66425 U7_U2_U9_N572634
+  U7_U2_U9_U135_N66937 0 CMOSN  
+ L=.18u  
+ W=.18u         
M_U7_U2_U9_U135_M12         X4 U7_U2_U9_N572580 N116990 N116990 CMOSP  
+ L=.18u  
+ W=.2u         
M_U7_U2_U9_U135_M2         U7_U2_U9_U135_N67495 U7_U2_U9_N572626
+  U7_U2_U9_U135_N66385 0 CMOSN  
+ L=.18u  
+ W=.18u         
M_U7_U2_U9_U135_M13         U7_U2_U9_U135_N67207 U7_U2_U9_N572642
+  U7_U2_U9_U135_N67213 0 CMOSN  
+ L=.18u  
+ W=.18u         
M_U7_U2_U9_U135_M10         U7_U2_U9_U135_N66937 U7_U2_U9_N572580
+  U7_U2_U9_U135_N67207 0 CMOSN  
+ L=.18u  
+ W=.18u         
M_U7_U2_U9_U135_M3         X4 U7_U2_U9_N572626 N116990 N116990 CMOSP  
+ L=.18u  
+ W=.2u         
M_U7_U2_U9_U135_M14         U7_U2_U9_U135_N67213 U7_U2_U9_N572650
+  U7_U2_U9_U135_N66527 0 CMOSN  
+ L=.18u  
+ W=.18u         
M_U7_U2_U9_U135_M8         X4 U7_U2_U9_N572650 N116990 N116990 CMOSP  
+ L=.18u  
+ W=.2u         
M_U7_U2_U9_U135_M4         X4 U7_U2_U9_N572630 N116990 N116990 CMOSP  
+ L=.18u  
+ W=.2u         
M_U7_U2_U9_U135_M15         U7_U2_U9_U135_N66527 U7_U2_U9_N572658 0 0 CMOSN  
+ L=.18u  
+ W=.18u         
M_U7_U2_U9_U115_M5         U7_U2_U9_N573086 Q60 N116990 N116990 CMOSP  
+ L=.18u  
+ W=.2u         
M_U7_U2_U9_U115_M6         U7_U2_U9_N573086 Q60 0 0 CMOSN  
+ L=.18u  
+ W=.18u         
M_U7_U2_U9_U90_M5         U7_U2_U9_N577760 U7_U2_U9_N578686 N116990 N116990
+  CMOSP  
+ L=.18u  
+ W=.2u         
M_U7_U2_U9_U90_M6         U7_U2_U9_N577760 U7_U2_U9_N578686 U7_U2_U9_U90_N39991
+  0 CMOSN  
+ L=.18u  
+ W=.18u         
M_U7_U2_U9_U90_M2         U7_U2_U9_U90_N39991 Q15 0 0 CMOSN  
+ L=.18u  
+ W=.18u         
M_U7_U2_U9_U90_M4         U7_U2_U9_N577760 Q15 N116990 N116990 CMOSP  
+ L=.18u  
+ W=.2u         
M_U7_U2_U9_U95_M5         U7_U2_U9_N577832 U7_U2_U9_N578524 N116990 N116990
+  CMOSP  
+ L=.18u  
+ W=.2u         
M_U7_U2_U9_U95_M6         U7_U2_U9_N577832 U7_U2_U9_N578524 U7_U2_U9_U95_N39991
+  0 CMOSN  
+ L=.18u  
+ W=.18u         
M_U7_U2_U9_U95_M2         U7_U2_U9_U95_N39991 Q23 0 0 CMOSN  
+ L=.18u  
+ W=.18u         
M_U7_U2_U9_U95_M4         U7_U2_U9_N577832 Q23 N116990 N116990 CMOSP  
+ L=.18u  
+ W=.2u         
M_U7_U2_U9_U133_M5         U7_U2_U9_N572622 U7_U2_U9_N573020 N116990 N116990
+  CMOSP  
+ L=.18u  
+ W=.2u         
M_U7_U2_U9_U133_M6         U7_U2_U9_N572622 U7_U2_U9_N573020
+  U7_U2_U9_U133_N39991 0 CMOSN  
+ L=.18u  
+ W=.18u         
M_U7_U2_U9_U133_M2         U7_U2_U9_U133_N39991 Q49 0 0 CMOSN  
+ L=.18u  
+ W=.18u         
M_U7_U2_U9_U133_M4         U7_U2_U9_N572622 Q49 N116990 N116990 CMOSP  
+ L=.18u  
+ W=.2u         
M_U7_U2_U9_U79_M5         U7_U2_U9_N578534 Q24 N116990 N116990 CMOSP  
+ L=.18u  
+ W=.2u         
M_U7_U2_U9_U79_M6         U7_U2_U9_N578534 Q24 0 0 CMOSN  
+ L=.18u  
+ W=.18u         
M_U7_U2_U9_U42_M5         U7_U2_U9_N567831 Q48 N116990 N116990 CMOSP  
+ L=.18u  
+ W=.2u         
M_U7_U2_U9_U42_M6         U7_U2_U9_N567831 Q48 0 0 CMOSN  
+ L=.18u  
+ W=.18u         
M_U7_U2_U9_U73_M5         U7_U2_U9_N578662 Q10 N116990 N116990 CMOSP  
+ L=.18u  
+ W=.2u         
M_U7_U2_U9_U73_M6         U7_U2_U9_N578662 Q10 0 0 CMOSN  
+ L=.18u  
+ W=.18u         
M_U7_U2_U9_U9_M5         U7_U2_U9_N259637 U7_U2_U9_N259543 N116990 N116990
+  CMOSP  
+ L=.18u  
+ W=.2u         
M_U7_U2_U9_U9_M6         U7_U2_U9_N259637 U7_U2_U9_N259543 U7_U2_U9_U9_N39991 0
+  CMOSN  
+ L=.18u  
+ W=.18u         
M_U7_U2_U9_U9_M2         U7_U2_U9_U9_N39991 Q40 0 0 CMOSN  
+ L=.18u  
+ W=.18u         
M_U7_U2_U9_U9_M4         U7_U2_U9_N259637 Q40 N116990 N116990 CMOSP  
+ L=.18u  
+ W=.2u         
M_U7_U2_U9_U56_M5         U7_U2_U9_N567879 U7_U2_U9_N567811 N116990 N116990
+  CMOSP  
+ L=.18u  
+ W=.2u         
M_U7_U2_U9_U56_M6         U7_U2_U9_N567879 U7_U2_U9_N567811 U7_U2_U9_U56_N39991
+  0 CMOSN  
+ L=.18u  
+ W=.18u         
M_U7_U2_U9_U56_M2         U7_U2_U9_U56_N39991 Q42 0 0 CMOSN  
+ L=.18u  
+ W=.18u         
M_U7_U2_U9_U56_M4         U7_U2_U9_N567879 Q42 N116990 N116990 CMOSP  
+ L=.18u  
+ W=.2u         
M_U7_U2_U9_U23_M5         U7_U2_D-3SB U7_U2_U9_N565340 N116990 N116990 CMOSP  
+ L=.18u  
+ W=.2u         
M_U7_U2_U9_U23_M6         U7_U2_D-3SB U7_U2_U9_N565340 0 0 CMOSN  
+ L=.18u  
+ W=.18u         
M_U7_U2_U9_U123_M5         U7_U2_U9_N572206 U7_U2_U9_N572144 N116990 N116990
+  CMOSP  
+ L=.18u  
+ W=.2u         
M_U7_U2_U9_U123_M6         U7_U2_U9_N572206 U7_U2_U9_N572144
+  U7_U2_U9_U123_N39991 0 CMOSN  
+ L=.18u  
+ W=.18u         
M_U7_U2_U9_U123_M2         U7_U2_U9_U123_N39991 Q45 0 0 CMOSN  
+ L=.18u  
+ W=.18u         
M_U7_U2_U9_U123_M4         U7_U2_U9_N572206 Q45 N116990 N116990 CMOSP  
+ L=.18u  
+ W=.2u         
M_U7_U2_U9_U63_M16         U7_U2_U9_N567419 U7_U2_U9_N568285 N116990 N116990
+  CMOSP  
+ L=.18u  
+ W=.2u         
M_U7_U2_U9_U63_M5         U7_U2_U9_N567419 U7_U2_U9_N568189 N116990 N116990
+  CMOSP  
+ L=.18u  
+ W=.2u         
M_U7_U2_U9_U63_M11         U7_U2_U9_N567419 U7_U2_U9_N568171 N116990 N116990
+  CMOSP  
+ L=.18u  
+ W=.2u         
M_U7_U2_U9_U63_M9         U7_U2_U9_N567419 U7_U2_U9_N568243 N116990 N116990
+  CMOSP  
+ L=.18u  
+ W=.2u         
M_U7_U2_U9_U63_M1         U7_U2_U9_N567419 U7_U2_U9_N568171 U7_U2_U9_U63_N67495
+  0 CMOSN  
+ L=.18u  
+ W=.18u         
M_U7_U2_U9_U63_M6         U7_U2_U9_U63_N66385 U7_U2_U9_N568271
+  U7_U2_U9_U63_N66425 0 CMOSN  
+ L=.18u  
+ W=.18u         
M_U7_U2_U9_U63_M7         U7_U2_U9_U63_N66425 U7_U2_U9_N568285
+  U7_U2_U9_U63_N66937 0 CMOSN  
+ L=.18u  
+ W=.18u         
M_U7_U2_U9_U63_M12         U7_U2_U9_N567419 U7_U2_U9_N568251 N116990 N116990
+  CMOSP  
+ L=.18u  
+ W=.2u         
M_U7_U2_U9_U63_M2         U7_U2_U9_U63_N67495 U7_U2_U9_N568263
+  U7_U2_U9_U63_N66385 0 CMOSN  
+ L=.18u  
+ W=.18u         
M_U7_U2_U9_U63_M13         U7_U2_U9_U63_N67207 U7_U2_U9_N568243
+  U7_U2_U9_U63_N67213 0 CMOSN  
+ L=.18u  
+ W=.18u         
M_U7_U2_U9_U63_M10         U7_U2_U9_U63_N66937 U7_U2_U9_N568251
+  U7_U2_U9_U63_N67207 0 CMOSN  
+ L=.18u  
+ W=.18u         
M_U7_U2_U9_U63_M3         U7_U2_U9_N567419 U7_U2_U9_N568263 N116990 N116990
+  CMOSP  
+ L=.18u  
+ W=.2u         
M_U7_U2_U9_U63_M14         U7_U2_U9_U63_N67213 U7_U2_U9_N568231
+  U7_U2_U9_U63_N66527 0 CMOSN  
+ L=.18u  
+ W=.18u         
M_U7_U2_U9_U63_M8         U7_U2_U9_N567419 U7_U2_U9_N568231 N116990 N116990
+  CMOSP  
+ L=.18u  
+ W=.2u         
M_U7_U2_U9_U63_M4         U7_U2_U9_N567419 U7_U2_U9_N568271 N116990 N116990
+  CMOSP  
+ L=.18u  
+ W=.2u         
M_U7_U2_U9_U63_M15         U7_U2_U9_U63_N66527 U7_U2_U9_N568189 0 0 CMOSN  
+ L=.18u  
+ W=.18u         
M_U7_U2_U9_U21_M5         U7_U2_U9_N564924 Q56 N116990 N116990 CMOSP  
+ L=.18u  
+ W=.2u         
M_U7_U2_U9_U21_M6         U7_U2_U9_N564924 Q56 0 0 CMOSN  
+ L=.18u  
+ W=.18u         
M_U7_U2_U9_U134_M16         X3 U7_U2_U9_N572190 N116990 N116990 CMOSP  
+ L=.18u  
+ W=.2u         
M_U7_U2_U9_U134_M5         X3 U7_U2_U9_N572214 N116990 N116990 CMOSP  
+ L=.18u  
+ W=.2u         
M_U7_U2_U9_U134_M11         X3 U7_U2_U9_N572170 N116990 N116990 CMOSP  
+ L=.18u  
+ W=.2u         
M_U7_U2_U9_U134_M9         X3 U7_U2_U9_N572198 N116990 N116990 CMOSP  
+ L=.18u  
+ W=.2u         
M_U7_U2_U9_U134_M1         X3 U7_U2_U9_N572170 U7_U2_U9_U134_N67495 0 CMOSN  
+ L=.18u  
+ W=.18u         
M_U7_U2_U9_U134_M6         U7_U2_U9_U134_N66385 U7_U2_U9_N572186
+  U7_U2_U9_U134_N66425 0 CMOSN  
+ L=.18u  
+ W=.18u         
M_U7_U2_U9_U134_M7         U7_U2_U9_U134_N66425 U7_U2_U9_N572190
+  U7_U2_U9_U134_N66937 0 CMOSN  
+ L=.18u  
+ W=.18u         
M_U7_U2_U9_U134_M12         X3 U7_U2_U9_N572512 N116990 N116990 CMOSP  
+ L=.18u  
+ W=.2u         
M_U7_U2_U9_U134_M2         U7_U2_U9_U134_N67495 U7_U2_U9_N572182
+  U7_U2_U9_U134_N66385 0 CMOSN  
+ L=.18u  
+ W=.18u         
M_U7_U2_U9_U134_M13         U7_U2_U9_U134_N67207 U7_U2_U9_N572198
+  U7_U2_U9_U134_N67213 0 CMOSN  
+ L=.18u  
+ W=.18u         
M_U7_U2_U9_U134_M10         U7_U2_U9_U134_N66937 U7_U2_U9_N572512
+  U7_U2_U9_U134_N67207 0 CMOSN  
+ L=.18u  
+ W=.18u         
M_U7_U2_U9_U134_M3         X3 U7_U2_U9_N572182 N116990 N116990 CMOSP  
+ L=.18u  
+ W=.2u         
M_U7_U2_U9_U134_M14         U7_U2_U9_U134_N67213 U7_U2_U9_N572206
+  U7_U2_U9_U134_N66527 0 CMOSN  
+ L=.18u  
+ W=.18u         
M_U7_U2_U9_U134_M8         X3 U7_U2_U9_N572206 N116990 N116990 CMOSP  
+ L=.18u  
+ W=.2u         
M_U7_U2_U9_U134_M4         X3 U7_U2_U9_N572186 N116990 N116990 CMOSP  
+ L=.18u  
+ W=.2u         
M_U7_U2_U9_U134_M15         U7_U2_U9_U134_N66527 U7_U2_U9_N572214 0 0 CMOSN  
+ L=.18u  
+ W=.18u         
M_U7_U2_U9_U3_M5         U7_U2_U9_N259565 Q16 N116990 N116990 CMOSP  
+ L=.18u  
+ W=.2u         
M_U7_U2_U9_U3_M6         U7_U2_U9_N259565 Q16 0 0 CMOSN  
+ L=.18u  
+ W=.18u         
M_U7_U2_U9_U114_M5         U7_U2_U9_N573076 Q58 N116990 N116990 CMOSP  
+ L=.18u  
+ W=.2u         
M_U7_U2_U9_U114_M6         U7_U2_U9_N573076 Q58 0 0 CMOSN  
+ L=.18u  
+ W=.18u         
M_U7_U2_U9_U6_M5         U7_U2_D-5SB U7_U2_U9_N259351 N116990 N116990 CMOSP  
+ L=.18u  
+ W=.2u         
M_U7_U2_U9_U6_M6         U7_U2_D-5SB U7_U2_U9_N259351 U7_U2_U9_U6_N39991 0
+  CMOSN  
+ L=.18u  
+ W=.18u         
M_U7_U2_U9_U6_M2         U7_U2_U9_U6_N39991 U7_U2_U9_N259199 0 0 CMOSN  
+ L=.18u  
+ W=.18u         
M_U7_U2_U9_U6_M4         U7_U2_D-5SB U7_U2_U9_N259199 N116990 N116990 CMOSP  
+ L=.18u  
+ W=.2u         
M_U7_U2_U9_U102_M5         U7_U2_U9_N572074 Q34 N116990 N116990 CMOSP  
+ L=.18u  
+ W=.2u         
M_U7_U2_U9_U102_M6         U7_U2_U9_N572074 Q34 0 0 CMOSN  
+ L=.18u  
+ W=.18u         
M_U7_U2_U9_U36_M5         U7_U2_U9_N568545 Q20 N116990 N116990 CMOSP  
+ L=.18u  
+ W=.2u         
M_U7_U2_U9_U36_M6         U7_U2_U9_N568545 Q20 0 0 CMOSN  
+ L=.18u  
+ W=.18u         
M_U7_U2_U9_U68_M5         U7_U2_U9_N577720 Q1 N116990 N116990 CMOSP  
+ L=.18u  
+ W=.2u         
M_U7_U2_U9_U68_M6         U7_U2_U9_N577720 Q1 0 0 CMOSN  
+ L=.18u  
+ W=.18u         
M_U7_U2_U9_U85_M5         U7_U2_U9_N577736 U7_U2_U9_N578622 N116990 N116990
+  CMOSP  
+ L=.18u  
+ W=.2u         
M_U7_U2_U9_U85_M6         U7_U2_U9_N577736 U7_U2_U9_N578622 U7_U2_U9_U85_N39991
+  0 CMOSN  
+ L=.18u  
+ W=.18u         
M_U7_U2_U9_U85_M2         U7_U2_U9_U85_N39991 Q5 0 0 CMOSN  
+ L=.18u  
+ W=.18u         
M_U7_U2_U9_U85_M4         U7_U2_U9_N577736 Q5 N116990 N116990 CMOSP  
+ L=.18u  
+ W=.2u         
M_U7_U2_U9_U107_M5         U7_U2_U9_N572144 Q44 N116990 N116990 CMOSP  
+ L=.18u  
+ W=.2u         
M_U7_U2_U9_U107_M6         U7_U2_U9_N572144 Q44 0 0 CMOSN  
+ L=.18u  
+ W=.18u         
M_U7_U2_U9_U140_M7         U7_U2_D-LSB U7_U2_U9_N575328 N116990 N116990 CMOSP  
+ L=.18u  
+ W=.2u         
M_U7_U2_U9_U140_M8         U7_U2_D-LSB U7_U2_U9_N575362 N116990 N116990 CMOSP  
+ L=.18u  
+ W=.2u         
M_U7_U2_U9_U140_M12         U7_U2_D-LSB U7_U2_U9_N575374 N116990 N116990 CMOSP 
+  
+ L=.18u  
+ W=.2u         
M_U7_U2_U9_U140_M9         U7_U2_D-LSB U7_U2_U9_N575382 N116990 N116990 CMOSP  
+ L=.18u  
+ W=.2u         
M_U7_U2_U9_U140_M1         U7_U2_D-LSB U7_U2_U9_N575328 U7_U2_U9_U140_N88766 0
+  CMOSN  
+ L=.18u  
+ W=.18u         
M_U7_U2_U9_U140_M10         U7_U2_U9_U140_N88906 U7_U2_U9_N575382
+  U7_U2_U9_U140_N88946 0 CMOSN  
+ L=.18u  
+ W=.18u         
M_U7_U2_U9_U140_M3         U7_U2_U9_U140_N88766 U7_U2_U9_N575362
+  U7_U2_U9_U140_N88906 0 CMOSN  
+ L=.18u  
+ W=.18u         
M_U7_U2_U9_U140_M11         U7_U2_U9_U140_N88946 U7_U2_U9_N575374 0 0 CMOSN  
+ L=.18u  
+ W=.18u         
M_U7_U2_U9_U78_M5         U7_U2_U9_N578552 Q26 N116990 N116990 CMOSP  
+ L=.18u  
+ W=.2u         
M_U7_U2_U9_U78_M6         U7_U2_U9_N578552 Q26 0 0 CMOSN  
+ L=.18u  
+ W=.18u         
M_U7_U2_U9_U60_M5         U7_U2_U9_N568185 U7_U2_U9_N567851 N116990 N116990
+  CMOSP  
+ L=.18u  
+ W=.2u         
M_U7_U2_U9_U60_M6         U7_U2_U9_N568185 U7_U2_U9_N567851 U7_U2_U9_U60_N39991
+  0 CMOSN  
+ L=.18u  
+ W=.18u         
M_U7_U2_U9_U60_M2         U7_U2_U9_U60_N39991 Q58 0 0 CMOSN  
+ L=.18u  
+ W=.18u         
M_U7_U2_U9_U60_M4         U7_U2_U9_N568185 Q58 N116990 N116990 CMOSP  
+ L=.18u  
+ W=.2u         
M_U7_U2_U9_U120_M5         U7_U2_U9_N572190 U7_U2_U9_N793529 N116990 N116990
+  CMOSP  
+ L=.18u  
+ W=.2u         
M_U7_U2_U9_U120_M6         U7_U2_U9_N572190 U7_U2_U9_N793529
+  U7_U2_U9_U120_N39991 0 CMOSN  
+ L=.18u  
+ W=.18u         
M_U7_U2_U9_U120_M2         U7_U2_U9_U120_N39991 Q39 0 0 CMOSN  
+ L=.18u  
+ W=.18u         
M_U7_U2_U9_U120_M4         U7_U2_U9_N572190 Q39 N116990 N116990 CMOSP  
+ L=.18u  
+ W=.2u         
M_U7_U2_U9_U19_M5         U7_U2_U9_N565120 Q40 N116990 N116990 CMOSP  
+ L=.18u  
+ W=.2u         
M_U7_U2_U9_U19_M6         U7_U2_U9_N565120 Q40 0 0 CMOSN  
+ L=.18u  
+ W=.18u         
[...]

(U7_U2_N713243)    3.0216             (U7_U2_N713881)    3.0216                 

(U7_U2_N714526)    3.0216             (U7_U2_N715178)    3.0216                 

(U7_U2_N715836)    3.0216             (U7_U2_N716503)    3.0216                 

(U7_U2_N717177)    3.0216             (U7_U2_N717856)    3.0216                 

(U7_U2_N718542)    3.0216             (U7_U2_N719235)    3.0216                 

(U7_U2_N719933)    3.0216             (U7_U2_N720637)    3.0216                 

(U7_U2_N721348)    3.0216             (U7_U2_N722067)    3.0216                 

(U7_U2_N722793)    3.0216             (U7_U2_N723528)    3.0216                 

(U7_U2_N724271)    3.0216             (U7_U2_N725021)    3.0216                 

(U7_U2_N725779)    3.0216             (U7_U2_N726544)    3.0216                 

(U7_U2_N727317)    3.0216             (U7_U2_N728097)    3.0216                 

(U7_U2_N728884)    3.0216             (U7_U2_N729676)    3.0216                 

(U7_U2_N730476)    3.0216             (U7_U2_N731282)    3.0216                 

(U7_U2_N732095)    3.0216             (U7_U2_N732915)    3.0216                 

(U7_U2_N733741)    3.0216             (U7_U2_N734572)    3.0216                 

(U7_U2_N735410)    3.0216             (U7_U2_C1_N26867)    3.2675               

(U7_U2_C1_N27165)     .0286           (U7_U2_C2_N26867)    2.4343               

(U7_U2_C2_N27165)     .0355           (U7_U2_C3_N26867)    1.2872               

(U7_U2_C3_N27165)     .0424           (U7_U2_C4_N26867)     .2531               

(U7_U2_C4_N27165)     .0494           (U7_U2_C5_N26867)     .0681               

(U7_U2_C5_N27165)     .0507           (U7_U2_C6_N26867)     .0572               

(U7_U2_C6_N27165)     .0508           (U7_U2_C7_N26867)     .0538               

(U7_U2_C7_N27165)     .0508           (U7_U2_C8_N26867)     .0525               

(U7_U2_C8_N27165)     .0508           (U7_U2_C9_N26867)     .0519               

(U7_U2_C9_N27165)     .0508           (U7_1R-DIV_N02264)     .6500              

(U7_1R-DIV_N03019)    2.5400          (U7_1R-DIV_N03082)    2.0450              

(U7_1R-DIV_N03146)    1.5500          (U7_1R-DIV_N03539)    1.0550              

(U7_1R-DIV_N17274)     .2450          (U7_2R-DIV_N02264)     .6500              

(U7_2R-DIV_N03019)    2.5400          (U7_2R-DIV_N03082)    2.0450              

(U7_2R-DIV_N03146)    1.5500          (U7_2R-DIV_N03539)    1.0550              

(U7_2R-DIV_N17274)     .2450          (U7_U2_C10_N26867)     .0516              

(U7_U2_C10_N27165)     .0508          (U7_U2_C11_N26867)     .0514              

(U7_U2_C11_N27165)     .0508          (U7_U2_C12_N26867)     .0513              

(U7_U2_C12_N27165)     .0508          (U7_U2_C13_N26867)     .0512              

(U7_U2_C13_N27165)     .0508          (U7_U2_C14_N26867)     .0512              

(U7_U2_C14_N27165)     .0508          (U7_U2_C15_N26867)     .0511              

(U7_U2_C15_N27165)     .0508          (U7_U2_C16_N26867)     .0511              

(U7_U2_C16_N27165)     .0508          (U7_U2_C17_N26867)     .0511              

(U7_U2_C17_N27165)     .0508          (U7_U2_C18_N26867)     .0511              

(U7_U2_C18_N27165)     .0508          (U7_U2_C19_N26867)     .0511              

(U7_U2_C19_N27165)     .0508          (U7_U2_C20_N26867)     .0510              

(U7_U2_C20_N27165)     .0508          (U7_U2_C21_N26867)     .0510              

(U7_U2_C21_N27165)     .0508          (U7_U2_C22_N26867)     .0510              

(U7_U2_C22_N27165)     .0508          (U7_U2_C23_N26867)     .0510              

(U7_U2_C23_N27165)     .0508          (U7_U2_C24_N26867)     .0510              

(U7_U2_C24_N27165)     .0508          (U7_U2_C25_N26867)     .0510              

(U7_U2_C25_N27165)     .0508          (U7_U2_C26_N26867)     .0510              

(U7_U2_C26_N27165)     .0508          (U7_U2_C27_N26867)     .0510              

(U7_U2_C27_N27165)     .0508          (U7_U2_C28_N26867)     .0510              

(U7_U2_C28_N27165)     .0508          (U7_U2_C29_N26867)     .0510              

(U7_U2_C29_N27165)     .0508          (U7_U2_C30_N26867)     .0510              

(U7_U2_C30_N27165)     .0508          (U7_U2_C31_N26867)     .0510              

(U7_U2_C31_N27165)     .0508          (U7_U2_C32_N26867)     .0510              

(U7_U2_C32_N27165)     .0508          (U7_U2_C33_N26867)     .0510              

(U7_U2_C33_N27165)     .0508          (U7_U2_C34_N26867)     .0510              

(U7_U2_C34_N27165)     .0508          (U7_U2_C35_N26867)     .0509              

(U7_U2_C35_N27165)     .0508          (U7_U2_C36_N26867)     .0509              

(U7_U2_C36_N27165)     .0508          (U7_U2_C37_N26867)     .0509              

(U7_U2_C37_N27165)     .0508          (U7_U2_C38_N26867)     .0509              

(U7_U2_C38_N27165)     .0508          (U7_U2_C39_N26867)     .0509              

(U7_U2_C39_N27165)     .0508          (U7_U2_C40_N26867)     .0509              

(U7_U2_C40_N27165)     .0508          (U7_U2_C41_N26867)     .0509              

(U7_U2_C41_N27165)     .0508          (U7_U2_C42_N26867)     .0509              

(U7_U2_C42_N27165)     .0508          (U7_U2_C43_N26867)     .0509              

(U7_U2_C43_N27165)     .0508          (U7_U2_C44_N26867)     .0509              

(U7_U2_C44_N27165)     .0508          (U7_U2_C45_N26867)     .0509              

(U7_U2_C45_N27165)     .0508          (U7_U2_C46_N26867)     .0509              

(U7_U2_C46_N27165)     .0508          (U7_U2_C47_N26867)     .0509              

(U7_U2_C47_N27165)     .0508          (U7_U2_C48_N26867)     .0509              

(U7_U2_C48_N27165)     .0508          (U7_U2_C49_N26867)     .0509              

(U7_U2_C49_N27165)     .0508          (U7_U2_C50_N26867)     .0509              

(U7_U2_C50_N27165)     .0508          (U7_U2_C51_N26867)     .0509              

(U7_U2_C51_N27165)     .0508          (U7_U2_C52_N26867)     .0509              

(U7_U2_C52_N27165)     .0508          (U7_U2_C53_N26867)     .0509              

(U7_U2_C53_N27165)     .0508          (U7_U2_C54_N26867)     .0509              

(U7_U2_C54_N27165)     .0508          (U7_U2_C55_N26867)     .0509              

(U7_U2_C55_N27165)     .0508          (U7_U2_C56_N26867)     .0509              

(U7_U2_C56_N27165)     .0508          (U7_U2_C57_N26867)     .0509              

(U7_U2_C57_N27165)     .0508          (U7_U2_C58_N26867)     .0509              

(U7_U2_C58_N27165)     .0508          (U7_U2_C59_N26867)     .0509              

(U7_U2_C59_N27165)     .0508          (U7_U2_C60_N26867)     .0509              

(U7_U2_C60_N27165)     .0508          (U7_U2_C61_N26867)     .0509              

(U7_U2_C61_N27165)     .0508          (U7_U2_C62_N26867)     .0509              

(U7_U2_C62_N27165)     .0508          (U7_U2_C63_N26867)     .0509              

(U7_U2_C63_N27165)     .0508          (U7_U2_U10_N62128)    3.3000              

(U7_U2_U10_N62152) 965.0E-09          (U7_U2_U11_N62128)    3.3000              

(U7_U2_U11_N62152) 939.9E-09          (U7_U2_U12_N62128)    3.3000              

(U7_U2_U12_N62152) 939.9E-09          (U7_U2_U13_N62128)    3.3000              

(U7_U2_U13_N62152) 939.9E-09          (U7_U2_U14_N62128)    3.3000              

(U7_U2_U14_N62152) 939.9E-09          (U7_U2_U15_N62128) 939.9E-09              

(U7_U2_U15_N62152)    3.3000          (U7_U2_U9_N259199)    3.3000              

(U7_U2_U9_N259339) 247.5E-09          (U7_U2_U9_N259351) 247.5E-09              

(U7_U2_U9_N259543) 247.5E-09          (U7_U2_U9_N259565) 247.5E-09              

(U7_U2_U9_N259605) 247.5E-09          (U7_U2_U9_N259627)    3.3000              

(U7_U2_U9_N259637)    3.3000          (U7_U2_U9_N259645) 247.5E-09              

(U7_U2_U9_N259649)    3.3000          (U7_U2_U9_N564842)    3.3000              

(U7_U2_U9_N564920) 247.5E-09          (U7_U2_U9_N564924) 247.5E-09              

(U7_U2_U9_N565082) 247.5E-09          (U7_U2_U9_N565094) 247.5E-09              

(U7_U2_U9_N565104) 247.5E-09          (U7_U2_U9_N565120) 247.5E-09              

(U7_U2_U9_N565130) 247.5E-09          (U7_U2_U9_N565340) 235.0E-09              

(U7_U2_U9_N565346) 248.0E-09          (U7_U2_U9_N565368)    3.3000              

(U7_U2_U9_N565380)    3.3000          (U7_U2_U9_N565392)    3.3000              

(U7_U2_U9_N565404)    3.3000          (U7_U2_U9_N565416)    3.3000              

(U7_U2_U9_N565498)    3.3000          (U7_U2_U9_N567401) 235.0E-09              

(U7_U2_U9_N567415)    3.3000          (U7_U2_U9_N567419)    3.3000              

(U7_U2_U9_N567441)    3.3000          (U7_U2_U9_N567801) 247.5E-09              

(U7_U2_U9_N567811) 247.5E-09          (U7_U2_U9_N567821) 247.5E-09              

(U7_U2_U9_N567831) 247.5E-09          (U7_U2_U9_N567841) 247.5E-09              

(U7_U2_U9_N567851) 247.5E-09          (U7_U2_U9_N567861) 247.5E-09              

(U7_U2_U9_N567879)    3.3000          (U7_U2_U9_N567883)    3.3000              

(U7_U2_U9_N568069)    3.3000          (U7_U2_U9_N568171) 275.7E-09              

(U7_U2_U9_N568185)    3.3000          (U7_U2_U9_N568189)    3.3000              

(U7_U2_U9_N568231)    3.3000          (U7_U2_U9_N568243)    3.3000              

(U7_U2_U9_N568251)    3.3000          (U7_U2_U9_N568263)    3.3000              

(U7_U2_U9_N568271)    3.3000          (U7_U2_U9_N568285)    3.3000              

(U7_U2_U9_N568303)    3.3000          (U7_U2_U9_N568485)    3.3000              

(U7_U2_U9_N568499) 248.0E-09          (U7_U2_U9_N568511) 247.5E-09              

(U7_U2_U9_N568523) 247.5E-09          (U7_U2_U9_N568535) 247.5E-09              

(U7_U2_U9_N568545) 247.5E-09          (U7_U2_U9_N568555) 247.5E-09              

(U7_U2_U9_N568565) 247.5E-09          (U7_U2_U9_N568995)    3.3000              

(U7_U2_U9_N569141) 247.5E-09          (U7_U2_U9_N572064) 247.5E-09              

(U7_U2_U9_N572074) 247.5E-09          (U7_U2_U9_N572104) 247.5E-09              

(U7_U2_U9_N572124) 247.5E-09          (U7_U2_U9_N572134) 247.5E-09              

(U7_U2_U9_N572144) 247.5E-09          (U7_U2_U9_N572160) 247.5E-09              

(U7_U2_U9_N572170)    3.3000          (U7_U2_U9_N572182)    3.3000              

(U7_U2_U9_N572186)    3.3000          (U7_U2_U9_N572190)    3.3000              

(U7_U2_U9_N572198)    3.3000          (U7_U2_U9_N572206)    3.3000              

(U7_U2_U9_N572214)    3.3000          (U7_U2_U9_N572512)    3.3000              

(U7_U2_U9_N572580)    3.3000          (U7_U2_U9_N572622)    3.3000              

(U7_U2_U9_N572626)    3.3000          (U7_U2_U9_N572630)    3.3000              

(U7_U2_U9_N572634)    3.3000          (U7_U2_U9_N572642)    3.3000              

(U7_U2_U9_N572650)    3.3000          (U7_U2_U9_N572658)    3.3000              

(U7_U2_U9_N573020) 247.5E-09          (U7_U2_U9_N573036) 247.5E-09              

(U7_U2_U9_N573046) 247.5E-09          (U7_U2_U9_N573056) 247.5E-09              

(U7_U2_U9_N573066) 247.5E-09          (U7_U2_U9_N573076) 247.5E-09              

(U7_U2_U9_N573086) 247.5E-09          (U7_U2_U9_N573096) 247.5E-09              

(U7_U2_U9_N575328)    3.3000          (U7_U2_U9_N575362)    3.3000              

(U7_U2_U9_N575374)    3.3000          (U7_U2_U9_N575382)    3.3000              

(U7_U2_U9_N577720)    3.3000          (U7_U2_U9_N577728)    3.3000              

(U7_U2_U9_N577736)    3.3000          (U7_U2_U9_N577748)    3.3000              

(U7_U2_U9_N577760)    3.3000          (U7_U2_U9_N577772)    3.3000              

(U7_U2_U9_N577784)    3.3000          (U7_U2_U9_N577796)    3.3000              

(U7_U2_U9_N577814)    3.3000          (U7_U2_U9_N577818)    3.3000              

(U7_U2_U9_N577828)    3.3000          (U7_U2_U9_N577832)    3.3000              

(U7_U2_U9_N577840)    3.3000          (U7_U2_U9_N577848)    3.3000              

(U7_U2_U9_N577856)    3.3000          (U7_U2_U9_N578480) 247.5E-09              

(U7_U2_U9_N578504) 247.5E-09          (U7_U2_U9_N578514) 247.5E-09              

(U7_U2_U9_N578524) 247.5E-09          (U7_U2_U9_N578534) 247.5E-09              

(U7_U2_U9_N578552) 247.5E-09          (U7_U2_U9_N578562) 247.5E-09              

(U7_U2_U9_N578578) 247.5E-09          (U7_U2_U9_N578608) 275.7E-09              

(U7_U2_U9_N578622) 248.0E-09          (U7_U2_U9_N578636) 247.5E-09              

(U7_U2_U9_N578650) 247.5E-09          (U7_U2_U9_N578662) 247.5E-09              

(U7_U2_U9_N578674) 247.5E-09          (U7_U2_U9_N578686) 247.5E-09              

(U7_U2_U9_N579510)    3.3000          (U7_U2_U9_N793529) 247.5E-09              

(U7_U2_U9_N831024)    3.3000          (U7_1R-DIV_N169051)     .2000             

(U7_2R-DIV_N169051)     .2000         (U7_U2_U9_N7604009) 15.04E-06             

(U7_U2_U9_U6_N39991) 2.241E-06        (U7_U2_U9_U7_N39991) 2.239E-06            

(U7_U2_U9_U8_N39991) 2.239E-06        (U7_U2_U9_U9_N39991) 2.239E-06            

(U7_U2_U10_U1_N27355)    3.2795       (U7_U2_U10_U1_N27381)     .0666           

(U7_U2_U10_U2_N39991) 2.241E-06       (U7_U2_U10_U3_N39991)    2.7365           

(U7_U2_U10_U4_N39991)    2.6048       (U7_U2_U10_U5_N39991)     .0947           

(U7_U2_U10_U6_N39991) 482.2E-09       (U7_U2_U11_U1_N27355)    3.2795           

(U7_U2_U11_U1_N27381)     .0666       (U7_U2_U11_U2_N39991) 2.241E-06           

(U7_U2_U11_U3_N39991)    2.7365       (U7_U2_U11_U4_N39991)    2.6048           

(U7_U2_U11_U5_N39991)     .0947       (U7_U2_U11_U6_N39991) 469.9E-09           

(U7_U2_U12_U1_N27355)    3.2795       (U7_U2_U12_U1_N27381)     .0666           

(U7_U2_U12_U2_N39991) 2.241E-06       (U7_U2_U12_U3_N39991)    2.7365           

(U7_U2_U12_U4_N39991)    2.6048       (U7_U2_U12_U5_N39991)     .0947           

(U7_U2_U12_U6_N39991) 469.9E-09       (U7_U2_U13_U1_N27355)    3.2795           

(U7_U2_U13_U1_N27381)     .0666       (U7_U2_U13_U2_N39991) 2.241E-06           

(U7_U2_U13_U3_N39991)    2.7365       (U7_U2_U13_U4_N39991)    2.6048           

(U7_U2_U13_U5_N39991)     .0947       (U7_U2_U13_U6_N39991) 469.9E-09           

(U7_U2_U14_U1_N27355)    3.2795       (U7_U2_U14_U1_N27381)     .0666           

(U7_U2_U14_U2_N39991) 2.241E-06       (U7_U2_U14_U3_N39991)    2.7365           

(U7_U2_U14_U4_N39991)     .0947       (U7_U2_U14_U5_N39991) 227.1E-06           

(U7_U2_U14_U6_N39991) 469.9E-09       (U7_U2_U15_U1_N27355)    3.2331           

(U7_U2_U15_U1_N27381) 2.191E-06       (U7_U2_U15_U2_N39991) 469.9E-09           

(U7_U2_U15_U3_N39991)     .0537       (U7_U2_U15_U4_N39991)    2.6049           

(U7_U2_U15_U5_N39991)     .0947       (U7_U2_U15_U6_N39991)    2.7365           

(U7_U2_U9_U10_N39991) 2.239E-06       (U7_U2_U9_U12_N88766) 6.722E-06           

(U7_U2_U9_U12_N88906) 4.481E-06       (U7_U2_U9_U12_N88946) 2.241E-06           

(U7_U2_U9_U13_N66385) 13.44E-06       (U7_U2_U9_U13_N66425) 11.20E-06           

(U7_U2_U9_U13_N66527) 2.240E-06       (U7_U2_U9_U13_N66937) 8.960E-06           

(U7_U2_U9_U13_N67207) 6.720E-06       (U7_U2_U9_U13_N67213) 4.480E-06           

(U7_U2_U9_U13_N67495) 15.68E-06       (U7_U2_U9_U24_N39991) 2.239E-06           

(U7_U2_U9_U25_N39991) 2.239E-06       (U7_U2_U9_U26_N39991) 2.239E-06           

(U7_U2_U9_U27_N39991) 2.239E-06       (U7_U2_U9_U28_N39991) 2.239E-06           

(U7_U2_U9_U29_N39991) 2.239E-06       (U7_U2_U9_U30_N39991) 2.239E-06           

(U7_U2_U9_U47_N39991) 2.239E-06       (U7_U2_U9_U48_N39991) 2.239E-06           

(U7_U2_U9_U49_N39991) 2.239E-06       (U7_U2_U9_U50_N39991) 2.239E-06           

(U7_U2_U9_U51_N39991) 2.239E-06       (U7_U2_U9_U52_N39991) 2.239E-06           

(U7_U2_U9_U53_N39991) 2.239E-06       (U7_U2_U9_U54_N39991) 2.239E-06           

(U7_U2_U9_U55_N39991) 2.239E-06       (U7_U2_U9_U56_N39991) 2.239E-06           

(U7_U2_U9_U57_N39991) 2.239E-06       (U7_U2_U9_U58_N39991) 2.239E-06           

(U7_U2_U9_U59_N39991) 2.239E-06       (U7_U2_U9_U60_N39991) 2.239E-06           

(U7_U2_U9_U61_N39991) 2.239E-06       (U7_U2_U9_U62_N39991)    2.7365           

(U7_U2_U9_U63_N66385) 13.44E-06       (U7_U2_U9_U63_N66425) 11.20E-06           

(U7_U2_U9_U63_N66527) 2.240E-06       (U7_U2_U9_U63_N66937) 8.960E-06           

(U7_U2_U9_U63_N67207) 6.720E-06       (U7_U2_U9_U63_N67213) 4.480E-06           

(U7_U2_U9_U63_N67495) 15.68E-06       (U7_U2_U9_U64_N66385) 11.28E-06           

(U7_U2_U9_U64_N66425) 9.399E-06       (U7_U2_U9_U64_N66527) 1.880E-06           

(U7_U2_U9_U64_N66937) 7.520E-06       (U7_U2_U9_U64_N67207) 5.640E-06           

(U7_U2_U9_U64_N67213) 3.760E-06       (U7_U2_U9_U64_N67495) 13.16E-06           

(U7_U2_U9_U84_N39991) 2.238E-06       (U7_U2_U9_U85_N39991) 2.239E-06           

(U7_U2_U9_U86_N39991) 2.239E-06       (U7_U2_U9_U87_N39991) 2.239E-06           

(U7_U2_U9_U88_N39991) 2.239E-06       (U7_U2_U9_U89_N39991) 2.239E-06           

(U7_U2_U9_U90_N39991) 2.239E-06       (U7_U2_U9_U91_N39991) 2.239E-06           

(U7_U2_U9_U92_N39991) 2.239E-06       (U7_U2_U9_U93_N39991) 2.239E-06           

(U7_U2_U9_U94_N39991) 2.239E-06       (U7_U2_U9_U95_N39991) 2.239E-06           

(U7_U2_U9_U96_N39991) 2.239E-06       (U7_U2_U9_U97_N39991) 2.239E-06           

(U7_U2_U9_U98_N39991) 2.239E-06       (U7_U2_U9_U99_N66385) 11.28E-06           

(U7_U2_U9_U99_N66425) 9.399E-06       (U7_U2_U9_U99_N66527) 1.880E-06           

(U7_U2_U9_U99_N66937) 7.520E-06       (U7_U2_U9_U99_N67207) 5.640E-06           

(U7_U2_U9_U99_N67213) 3.760E-06       (U7_U2_U9_U99_N67495) 13.16E-06           

(U7_U2_U9_U100_N66385) 11.28E-06      (U7_U2_U9_U100_N66425) 9.399E-06          

(U7_U2_U9_U100_N66527) 1.880E-06      (U7_U2_U9_U100_N66937) 7.520E-06          

(U7_U2_U9_U100_N67207) 5.640E-06      (U7_U2_U9_U100_N67213) 3.760E-06          

(U7_U2_U9_U100_N67495) 13.16E-06      (U7_U2_U9_U117_N39991) 2.239E-06          

(U7_U2_U9_U118_N39991) 2.239E-06      (U7_U2_U9_U119_N39991) 2.239E-06          

(U7_U2_U9_U120_N39991) 2.239E-06      (U7_U2_U9_U121_N39991) 2.239E-06          

(U7_U2_U9_U122_N39991) 2.239E-06      (U7_U2_U9_U123_N39991) 2.239E-06          

(U7_U2_U9_U124_N39991) 2.239E-06      (U7_U2_U9_U125_N39991) 2.239E-06          

(U7_U2_U9_U126_N39991) 2.239E-06      (U7_U2_U9_U127_N39991) 2.239E-06          

(U7_U2_U9_U129_N39991) 2.239E-06      (U7_U2_U9_U130_N39991) 2.239E-06          

(U7_U2_U9_U131_N39991) 2.239E-06      (U7_U2_U9_U132_N39991) 2.239E-06          

(U7_U2_U9_U133_N39991) 2.239E-06      (U7_U2_U9_U134_N66385) 11.28E-06          

(U7_U2_U9_U134_N66425) 9.399E-06      (U7_U2_U9_U134_N66527) 1.880E-06          

(U7_U2_U9_U134_N66937) 7.520E-06      (U7_U2_U9_U134_N67207) 5.640E-06          

(U7_U2_U9_U134_N67213) 3.760E-06      (U7_U2_U9_U134_N67495) 13.16E-06          

(U7_U2_U9_U135_N66385) 11.28E-06      (U7_U2_U9_U135_N66425) 9.399E-06          

(U7_U2_U9_U135_N66527) 1.880E-06      (U7_U2_U9_U135_N66937) 7.520E-06          

(U7_U2_U9_U135_N67207) 5.640E-06      (U7_U2_U9_U135_N67213) 3.760E-06          

(U7_U2_U9_U135_N67495) 13.16E-06      (U7_U2_U9_U140_N88766) 2.820E-06          

(U7_U2_U9_U140_N88906) 1.880E-06      (U7_U2_U9_U140_N88946) 940.0E-09      




    VOLTAGE SOURCE CURRENTS
    NAME         CURRENT

    V_Clock      0.000E+00
    V_U7_1R-DIV_V1   4.500E-06
    V_U7_2R-DIV_V1   4.500E-06
    V_VBIAS      0.000E+00
    V_VDD       -2.367E-04
    V_VREF      -9.000E-06
    V_VA         0.000E+00

    TOTAL POWER DISSIPATION   8.07E-04  WATTS


**** Command: FINISH
