
**** 05/15/10 16:36:02 ******* PSpice 16.0.0 (July 2006) ****** ID# 0 ********

 ** Profile: "DOBLE-NEG-PRUEBA"  [ D:\Documents\TESIS\fiocs\Design\I-COMPARADOR-01\OrCAD\i-comparador-01-pspicefiles\doble-neg\prueba


 ****     CIRCUIT DESCRIPTION


******************************************************************************




** Creating circuit file "PRUEBA.cir" 
** WARNING: THIS AUTOMATICALLY GENERATED FILE MAY BE OVERWRITTEN BY SUBSEQUENT SIMULATIONS

*Libraries: 
* Profile Libraries :
* Local Libraries :
.LIB "../../../i-comparador-01-pspicefiles/i-comparador-01.lib" 
* From [PSPICE NETLIST] section of C:\OrCAD\OrCAD_16.0\tools\PSpice\PSpice.ini file:
.lib "nom.lib" 

*Analysis directives: 
.DC LIN VQ- .99999 1.001 1u 
.PROBE V(alias(*)) I(alias(*)) W(alias(*)) D(alias(*)) NOISE(alias(*)) 
.INC "..\DOBLE-NEG.net" 



**** INCLUDING DOBLE-NEG.net ****
* source I-COMPARADOR-01
M_M1         NDNEG IN- NDBIAS 0 CMOSN  
+ L=10u  
+ W=177u         
M_M2         NDPOS IN+ NDBIAS 0 CMOSN  
+ L=10u  
+ W=177u         
V_VDD         N64870 0 3.3
M_M3         NDNEG NDNEG N64870 N64870 CMOSP  
+ L=12u  
+ W=18u         
V_VBIAS         VBIAS 0 .33
M_M12         N73445 NDPOS N64870 N64870 CMOSP  
+ L=5u  
+ W=366u         
M_M4         NDPOS NDNEG N64870 N64870 CMOSP  
+ L=12u  
+ W=18u         
V_VREF         IN+ 0 1
M_M13         N73445 VBIAS 0 0 CMOSN  
+ L=5u  
+ W=125u         
M_M5         NDBIAS VBIAS 0 0 CMOSN  
+ L=.2u  
+ W=.2u         
V_VIN         IN- 0 1

**** RESUMING PRUEBA.cir ****
.END


ERROR -- DC device VQ- is undefined